##############################################################################
#                                                                            #
# This CIF contains the data in a paper accepted for publication in Acta     #
# Crystallographica Section B. It has been peer reviewed under the auspices  #
# of the IUCr Commission on Journals.                                        #
#                                                                            #
# Full details of the Crystallographic Information File format               #
# are given in the paper "The Crystallographic Information File (CIF):       #
# a New Standard Archive File for Crystallography" by S. R. Hall, F. H.      #
# Allen and I. D. Brown [Acta Cryst. (1991), A47, 655-685].                  #
#                                                                            #
# The current version of the core CIF dictionary may be obtained from        #
# ftp://ftp.iucr.org/pub/cif_core.dic. The current version number is 2.1.    #
#                                                                            #
# Software is freely available for graphical display of the structure(s) in  #
# this CIF.  For information consult the CIF home page http://www.iucr.org/  #
# cif/home.html                                                              #
#                                                                            #
#           Copyright International Union of Crystallography                 #
#                                                                            #
##############################################################################

data_CP995
_audit_creation_method
;
 PLATON <TABLE ACC> option
 SHELXL97-2 & Manual Editing
;
_journal_date_recd_electronic     2005-12-15
_journal_date_accepted     2006-01-25
_journal_name_full     'Acta Crystallographica, Section B'
_journal_year     2006
_journal_volume     62
_journal_issue      2
_journal_page_first     330
_journal_page_last     334
_journal_paper_category     FA
_journal_coeditor_code     BK5027
_publ_contact_author_name
;
   Drs. A. Meetsma
;
_publ_contact_author_address
;
     Crystal Structure Center,
     Chemical Physics,
     Materials Science Center,
     Groningen University,
     Nijenborgh 4,
     NL-9747 AG Groningen,
     The Netherlands.
;
_publ_contact_author_email     A.Meetsma@rug.nl
_publ_contact_author_fax     '+31 50 3634441'
_publ_contact_author_phone     '+31 50 3634368'
_publ_section_title
;
Low Temperature Structure of Rubrene Single Crystals Grown by Vapour Transport
;
_publ_section_title_footnote     .
loop_
    _publ_author_name
    _publ_author_address
    'Jurchescu, Oana D.'
;
     Solid State Chemistry Laboratory
     Materials Science Center,
     University of Groningen,
     Nijenborgh 4,
     NL-9747 AG Groningen,
     The Netherlands
;
    'Meetsma, Auke'
;
     Solid State Chemistry Laboratory
     Materials Science Center,
     University of Groningen,
     Nijenborgh 4,
     NL-9747 AG Groningen,
     The Netherlands
;
    'Palstra, Thomas T.M.'
;
     Solid State Chemistry Laboratory
     Materials Science Center,
     University of Groningen,
     Nijenborgh 4,
     NL-9747 AG Groningen,
     The Netherlands
;
_publ_section_synopsis     .
data_100K
_chemical_name_systematic
; ?
;
_chemical_name_common     ?
_chemical_formula_moiety     'C42 H28'
_chemical_formula_sum     'C42 H28'
_chemical_formula_structural     ?
_chemical_formula_iupac     ?
_chemical_formula_weight     532.68
_chemical_melting_point     ?
_symmetry_cell_setting     orthorhombic
_symmetry_space_group_name_H-M     'C m c a'
_symmetry_space_group_name_Hall     '-C 2bc 2'
loop_
    _symmetry_equiv_pos_site_id
    _symmetry_equiv_pos_as_xyz
    1 x,y,z
    2 -x,1/2-y,1/2+z
    3 x,-y,-z
    4 -x,1/2+y,1/2-z
    5 -x,-y,-z
    6 x,1/2+y,1/2-z
    7 -x,y,z
    8 x,1/2-y,1/2+z
    9 1/2+x,1/2+y,z
    10 1/2-x,-y,1/2+z
    11 1/2+x,1/2-y,-z
    12 1/2-x,y,1/2-z
    13 1/2-x,1/2-y,-z
    14 1/2+x,y,1/2-z
    15 1/2-x,1/2+y,z
    16 1/2+x,-y,1/2+z
_cell_length_a     26.789(4)
_cell_length_b     7.1700(10)
_cell_length_c     14.211(2)
_cell_angle_alpha     90
_cell_angle_beta     90
_cell_angle_gamma     90
_cell_volume     2729.6(7)
_cell_formula_units_Z     4
_cell_measurement_reflns_used     4621
_cell_measurement_theta_min     2.87
_cell_measurement_theta_max     29.28
_cell_measurement_temperature     100.0(10)
_cell_special_details
;
 The final unit cell was obtained from the xyz centroids of
   4621 reflections after integration using the SAINT software
   package (Bruker, 2000).
;
_exptl_crystal_description     'platelet'
_exptl_crystal_colour     'orange'
_exptl_crystal_size_max     0.51
_exptl_crystal_size_mid     0.45
_exptl_crystal_size_min     0.03
_exptl_crystal_size_rad     ?
_exptl_crystal_density_diffrn     1.296
_exptl_crystal_density_meas     ?
_exptl_crystal_density_method     'not measured'
_exptl_crystal_F_000     1120
_exptl_absorpt_coefficient_mu     0.073
_exptl_absorpt_correction_type     'multi-Scan'
_exptl_absorpt_process_details     '(SADABS, Sheldrick, Bruker, 2000))'
_exptl_absorpt_correction_T_min     0.9521
_exptl_absorpt_correction_T_max     0.9978
_exptl_special_details
; ?
;
_diffrn_ambient_temperature     100.0(10)
_diffrn_radiation_type     'MoK\a'
_diffrn_radiation_wavelength     0.71073
_diffrn_radiation_source     'fine focus sealed Siemens Mo tube '
_diffrn_radiation_monochromator     'parallel mounted graphite'
_diffrn_measurement_device_type
;
  Bruker Smart Apex; CCD area detector
;
_diffrn_measurement_method     'phi and omega scans'
_diffrn_detector_area_resol_mean     '4096x4096 / 62x62 (binned 512)'
_diffrn_reflns_number     10125
_diffrn_reflns_av_R_equivalents     0.0347
_diffrn_reflns_av_sigmaI/netI     0.0246
_diffrn_reflns_theta_min     3.04
_diffrn_reflns_theta_max     26.37
_diffrn_reflns_theta_full     25.00
_diffrn_measured_fraction_theta_max     0.999
_diffrn_measured_fraction_theta_full     0.998
_diffrn_reflns_limit_h_min     -31
_diffrn_reflns_limit_h_max     33
_diffrn_reflns_limit_k_min     -8
_diffrn_reflns_limit_k_max     8
_diffrn_reflns_limit_l_min     -17
_diffrn_reflns_limit_l_max     17
_diffrn_reflns_reduction_process
;
 Intensity data were corrected for Lorentz and polarization
  effects, decay and absorption and reduced to F~o~^2^
  using SAINT (Bruker, 2000) and SADABS (Sheldrick, 2001)
;
_diffrn_standards_number     0
_diffrn_standards_interval_count     ?
_diffrn_standards_interval_time     ?
_diffrn_standards_decay_%     0
loop_
    _diffrn_standard_refln_index_h
    _diffrn_standard_refln_index_k
    _diffrn_standard_refln_index_l
    ? ? ?
_refine_special_details
;
 Refinement of F^2^ against ALL reflections.  The weighted R-factor wR and
 goodness of fit S are based on F^2^, conventional R-factors R are based
 on F, with F set to zero for negative F^2^. The threshold expression of
 F^2^ > 2sigma(F^2^) is used only for calculating R-factors(gt) etc. and is
 not relevant to the choice of reflections for refinement.  R-factors based
 on F^2^ are statistically about twice as large as those based on F, and R-
 factors based on ALL data will be even larger.
;
_reflns_number_total     1424
_reflns_number_gt     1201
_reflns_threshold_expression     I>2\s(I)
_refine_ls_structure_factor_coef     Fsqd
_refine_ls_matrix_type     full
_refine_ls_R_factor_all     0.0463
_refine_ls_R_factor_gt     0.0372
_refine_ls_wR_factor_gt     0.0941
_refine_ls_wR_factor_ref     0.0994
_refine_ls_goodness_of_fit_ref     1.062
_refine_ls_restrained_S_all     1.062
_refine_ls_number_reflns     1424
_refine_ls_number_parameters     124
_refine_ls_number_restraints     0
_refine_ls_number_constraints     ?
_refine_ls_hydrogen_treatment     refall
_refine_ls_weighting_scheme     calc
_refine_ls_weighting_details
;calc w=1/[\s^2^(Fo^2^)+(0.0473P)^2^+2.3678P]
 where P=(Fo^2^+2Fc^2^)/3
;
_atom_sites_solution_hydrogens     difmap
_atom_sites_solution_primary     direct
_atom_sites_solution_secondary     direct
_refine_ls_shift/su_max     0.000
_refine_ls_shift/su_mean     0.000
_refine_diff_density_max     0.256
_refine_diff_density_min     -0.210
_refine_ls_extinction_method     none
_refine_ls_extinction_coef     ?
_refine_ls_abs_structure_details     ?
_refine_ls_abs_structure_Flack     ?
loop_
    _atom_type_symbol
    _atom_type_description
    _atom_type_scat_dispersion_real
    _atom_type_scat_dispersion_imag
    _atom_type_scat_source
    H H 0.0000 0.0000 'International Tables Vol C Tables 4.2.6.8 and 6.1.1.4'
    C C 0.0033 0.0016 'International Tables Vol C Tables 4.2.6.8 and 6.1.1.4'
_computing_data_collection     'SMART, Bruker Version 5.624, 2001'
_computing_cell_refinement     'SAINT, Bruker Version 6.02A, 2000'
_computing_data_reduction     'XPREP, Bruker Version 5.1/NT, 2000'
_computing_structure_solution
;
 SHELXS-97 (Sheldrick, 1997)
;
_computing_structure_refinement     'SHELXL-97 (Sheldrick, 1997)'
_computing_molecular_graphics
;
 PLUTO (Meetsma, 2004)
 PLATON (Spek, 2003)
;
_computing_publication_material     'PLATON (Spek, 2003)'
loop_
    _atom_site_type_symbol
    _atom_site_label
    _atom_site_fract_x
    _atom_site_fract_y
    _atom_site_fract_z
    _atom_site_U_iso_or_equiv
    _atom_site_thermal_displace_type
    _atom_site_calc_flag
    _atom_site_refinement_flags
    _atom_site_occupancy
    C C1 0.02737(6) 0.00000 0.00000 0.0135(5) Uani . . 1.000
    C C2 0.05314(5) -0.14464(16) 0.04914(8) 0.0141(3) Uani . . 1.000
    C C3 0.02678(5) -0.29578(16) 0.08755(8) 0.0142(4) Uani . . 1.000
    C C4 0.05191(5) -0.44754(17) 0.13412(9) 0.0170(4) Uani . . 1.000
    C C5 0.02646(5) -0.58934(17) 0.17534(9) 0.0186(4) Uani . . 1.000
    C C6 0.10760(5) -0.13448(16) 0.07274(8) 0.0148(3) Uani . . 1.000
    C C7 0.14292(5) -0.24817(18) 0.02881(9) 0.0185(4) Uani . . 1.000
    C C8 0.19199(5) -0.25089(19) 0.05979(10) 0.0225(4) Uani . . 1.000
    C C9 0.20685(5) -0.1389(2) 0.13448(10) 0.0244(4) Uani . . 1.000
    C C10 0.17219(5) -0.0251(2) 0.17857(10) 0.0233(4) Uani . . 1.000
    C C11 0.12302(5) -0.02362(18) 0.14816(9) 0.0189(4) Uani . . 1.000
    H H4 0.0883(5) -0.447(2) 0.1357(10) 0.016(4) Uiso . . 1.000
    H H5 0.0438(5) -0.689(2) 0.2065(10) 0.020(4) Uiso . . 1.000
    H H7 0.1328(5) -0.327(2) -0.0256(10) 0.021(4) Uiso . . 1.000
    H H8 0.2167(5) -0.332(2) 0.0279(11) 0.028(4) Uiso . . 1.000
    H H9 0.2413(6) -0.140(2) 0.1546(10) 0.025(4) Uiso . . 1.000
    H H10 0.1825(6) 0.054(2) 0.2311(12) 0.032(4) Uiso . . 1.000
    H H11 0.0978(5) 0.054(2) 0.1804(11) 0.021(4) Uiso . . 1.000
loop_
    _atom_site_aniso_label
    _atom_site_aniso_U_11
    _atom_site_aniso_U_22
    _atom_site_aniso_U_33
    _atom_site_aniso_U_12
    _atom_site_aniso_U_13
    _atom_site_aniso_U_23
    C1 0.0166(9) 0.0122(8) 0.0116(8) 0.0000 0.0000 -0.0017(6)
    C2 0.0164(6) 0.0132(6) 0.0127(6) 0.0011(5) 0.0009(4) -0.0021(5)
    C3 0.0191(7) 0.0129(6) 0.0107(6) 0.0017(5) 0.0002(5) -0.0018(5)
    C4 0.0198(7) 0.0155(6) 0.0156(6) 0.0032(5) 0.0006(5) -0.0005(5)
    C5 0.0265(7) 0.0129(6) 0.0163(6) 0.0041(5) -0.0004(5) 0.0014(5)
    C6 0.0165(6) 0.0134(6) 0.0145(6) 0.0001(5) -0.0002(5) 0.0042(5)
    C7 0.0200(7) 0.0148(6) 0.0206(7) -0.0003(5) 0.0024(5) 0.0011(5)
    C8 0.0184(7) 0.0206(7) 0.0286(7) 0.0027(5) 0.0051(5) 0.0044(6)
    C9 0.0148(7) 0.0302(8) 0.0282(7) -0.0010(5) -0.0033(6) 0.0085(6)
    C10 0.0244(7) 0.0265(7) 0.0191(7) -0.0033(6) -0.0051(5) 0.0008(6)
    C11 0.0214(7) 0.0191(6) 0.0162(6) 0.0016(5) 0.0013(5) 0.0003(5)
_geom_special_details
;
 Bond distances, angles etc. have been calculated using the
 rounded fractional coordinates. All su's are estimated
 from the variances of the (full) variance-covariance matrix.
 The cell esds are taken into account in the estimation of
 distances, angles and torsion angles
;
loop_
    _geom_bond_atom_site_label_1
    _geom_bond_atom_site_label_2
    _geom_bond_site_symmetry_1
    _geom_bond_site_symmetry_2
    _geom_bond_distance
    _geom_bond_publ_flag
    C1 C2 . . 1.4282(14) no
    C1 C2 . 3_555 1.4282(14) no
    C1 C1 . 5_555 1.466(2) no
    C2 C3 . . 1.4039(17) no
    C2 C6 . . 1.4988(19) no
    C3 C4 . . 1.4406(17) no
    C3 C3 . 7_555 1.4348(19) no
    C4 C5 . . 1.3571(18) no
    C5 C5 . 7_555 1.4177(19) no
    C6 C7 . . 1.3962(18) no
    C6 C11 . . 1.3969(17) no
    C7 C8 . . 1.3864(19) no
    C8 C9 . . 1.389(2) no
    C9 C10 . . 1.386(2) no
    C10 C11 . . 1.3863(19) no
    C4 H4 . . 0.975(13) no
    C5 H5 . . 0.961(14) no
    C7 H7 . . 0.995(14) no
    C8 H8 . . 0.991(14) no
    C9 H9 . . 0.966(16) no
    C10 H10 . . 0.977(16) no
    C11 H11 . . 0.988(14) no
loop_
    _geom_contact_atom_site_label_1
    _geom_contact_atom_site_label_2
    _geom_contact_distance
    _geom_contact_site_symmetry_1
    _geom_contact_site_symmetry_2
    _geom_contact_publ_flag
    C2 C11 3.5807(18) . 3_555 no
    C4 C7 3.1980(19) . . no
    C4 C11 3.5927(19) . . no
    C6 C6 2.8272(17) . 3_555 no
    C6 C11 3.3631(18) . 3_555 no
    C6 C7 3.2412(18) . 3_555 no
    C7 C4 3.1980(19) . . no
    C7 C6 3.2412(18) . 3_555 no
    C7 C11 3.2259(19) . 3_555 no
    C8 C8 3.542(2) . 13_545 no
    C11 C4 3.5927(19) . . no
    C11 C6 3.3631(18) . 3_555 no
    C11 C2 3.5807(18) . 3_555 no
    C11 C7 3.2259(19) . 3_555 no
    C3 H5 3.059(14) . 6_555 no
    C4 H5 2.935(14) . 6_555 no
    C4 H11 2.909(15) . 6_545 no
    C5 H11 2.985(15) . 6_545 no
    C6 H4 2.468(14) . . no
    C7 H4 2.546(14) . . no
    C7 H7 3.058(14) . 3_545 no
    C8 H8 2.809(14) . 13_545 no
    C9 H10 2.987(16) . 6_545 no
    C9 H8 3.092(15) . 13_545 no
    C11 H7 3.070(14) . 3_555 no
    H4 C6 2.468(14) . . no
    H4 C7 2.546(14) . . no
    H4 H7 2.55(2) . 3_545 no
    H5 H11 2.37(2) . 1_545 no
    H5 C3 3.059(14) . 6_545 no
    H5 C4 2.935(14) . 6_545 no
    H7 C7 3.058(14) . 3_545 no
    H7 C11 3.070(14) . 3_555 no
    H7 H4 2.55(2) . 3_545 no
    H7 H7 2.59(2) . 3_545 no
    H8 H8 2.54(2) . 3_545 no
    H8 C8 2.809(14) . 13_545 no
    H8 C9 3.092(15) . 13_545 no
    H8 H8 2.28(2) . 13_545 no
    H10 C9 2.987(16) . 6_555 no
    H11 H5 2.37(2) . 1_565 no
    H11 C4 2.909(15) . 6_555 no
    H11 C5 2.985(15) . 6_555 no
loop_
    _geom_angle_atom_site_label_1
    _geom_angle_atom_site_label_2
    _geom_angle_atom_site_label_3
    _geom_angle_site_symmetry_1
    _geom_angle_site_symmetry_2
    _geom_angle_site_symmetry_3
    _geom_angle
    _geom_angle_publ_flag
    C2 C1 C2 . . 3_555 122.19(13) no
    C1 C1 C2 5_555 . . 118.91(8) no
    C1 C1 C2 5_555 . 3_555 118.91(8) no
    C1 C2 C3 . . . 120.50(12) no
    C1 C2 C6 . . . 123.00(11) no
    C3 C2 C6 . . . 116.11(10) no
    C2 C3 C4 . . . 121.78(12) no
    C2 C3 C3 . . 7_555 120.20(11) no
    C3 C3 C4 7_555 . . 117.86(11) no
    C3 C4 C5 . . . 121.97(12) no
    C4 C5 C5 . . 7_555 120.16(12) no
    C2 C6 C7 . . . 122.09(11) no
    C2 C6 C11 . . . 119.16(11) no
    C7 C6 C11 . . . 118.35(12) no
    C6 C7 C8 . . . 120.58(12) no
    C7 C8 C9 . . . 120.41(12) no
    C8 C9 C10 . . . 119.59(12) no
    C9 C10 C11 . . . 120.01(13) no
    C6 C11 C10 . . . 121.05(12) no
    C3 C4 H4 . . . 118.3(8) no
    C5 C4 H4 . . . 119.7(8) no
    C4 C5 H5 . . . 120.9(8) no
    C5 C5 H5 7_555 . . 118.9(8) no
    C6 C7 H7 . . . 119.6(8) no
    C8 C7 H7 . . . 119.8(8) no
    C7 C8 H8 . . . 119.8(8) no
    C9 C8 H8 . . . 119.8(8) no
    C8 C9 H9 . . . 119.7(9) no
    C10 C9 H9 . . . 120.7(9) no
    C9 C10 H10 . . . 119.9(9) no
    C11 C10 H10 . . . 120.1(9) no
    C6 C11 H11 . . . 118.3(8) no
    C10 C11 H11 . . . 120.6(8) no
loop_
    _geom_torsion_atom_site_label_1
    _geom_torsion_atom_site_label_2
    _geom_torsion_atom_site_label_3
    _geom_torsion_atom_site_label_4
    _geom_torsion_site_symmetry_1
    _geom_torsion_site_symmetry_2
    _geom_torsion_site_symmetry_3
    _geom_torsion_site_symmetry_4
    _geom_torsion
    _geom_torsion_publ_flag
    C2 C1 C2 C3 3_555 . . . -172.76(9) no
    C2 C1 C2 C6 3_555 . . . 14.70(13) no
    C1 C1 C2 C3 5_555 . . . 7.24(12) no
    C1 C1 C2 C6 5_555 . . . -165.30(8) no
    C1 C2 C3 C4 . . . . 177.42(10) no
    C1 C2 C3 C3 . . . 7_555 -7.34(16) no
    C6 C2 C3 C4 . . . . -9.54(16) no
    C6 C2 C3 C3 . . . 7_555 165.71(10) no
    C1 C2 C6 C7 . . . . -110.05(13) no
    C1 C2 C6 C11 . . . . 77.35(14) no
    C3 C2 C6 C7 . . . . 77.11(15) no
    C3 C2 C6 C11 . . . . -95.50(14) no
    C2 C3 C4 C5 . . . . 176.74(12) no
    C3 C3 C4 C5 7_555 . . . 1.39(18) no
    C2 C3 C3 C2 . . 7_555 7_555 0.00(17) no
    C2 C3 C3 C4 . . 7_555 7_555 -175.43(11) no
    C4 C3 C3 C2 . . 7_555 7_555 175.43(11) no
    C4 C3 C3 C4 . . 7_555 7_555 0.00(16) no
    C3 C4 C5 C5 . . . 7_555 -1.42(19) no
    C4 C5 C5 C4 . . 7_555 7_555 0.00(19) no
    C2 C6 C7 C8 . . . . -172.44(12) no
    C11 C6 C7 C8 . . . . 0.22(18) no
    C2 C6 C11 C10 . . . . 173.26(12) no
    C7 C6 C11 C10 . . . . 0.37(19) no
    C6 C7 C8 C9 . . . . -0.7(2) no
    C7 C8 C9 C10 . . . . 0.5(2) no
    C8 C9 C10 C11 . . . . 0.1(2) no
    C9 C10 C11 C6 . . . . -0.5(2) no
data_125K
_chemical_name_systematic
; ?
;
_chemical_name_common     ?
_chemical_formula_moiety     'C42 H28'
_chemical_formula_sum     'C42 H28'
_chemical_formula_structural     ?
_chemical_formula_iupac     ?
_chemical_formula_weight     532.68
_chemical_melting_point     ?
_symmetry_cell_setting     Orthorhombic
_symmetry_space_group_name_H-M     'C m c a'
_symmetry_space_group_name_Hall     '-C 2bc 2'
loop_
    _symmetry_equiv_pos_site_id
    _symmetry_equiv_pos_as_xyz
    1 x,y,z
    2 -x,1/2-y,1/2+z
    3 x,-y,-z
    4 -x,1/2+y,1/2-z
    5 -x,-y,-z
    6 x,1/2+y,1/2-z
    7 -x,y,z
    8 x,1/2-y,1/2+z
    9 1/2+x,1/2+y,z
    10 1/2-x,-y,1/2+z
    11 1/2+x,1/2-y,-z
    12 1/2-x,y,1/2-z
    13 1/2-x,1/2-y,-z
    14 1/2+x,y,1/2-z
    15 1/2-x,1/2+y,z
    16 1/2+x,-y,1/2+z
_cell_length_a     26.789(4)
_cell_length_b     7.1730(10)
_cell_length_c     14.246(2)
_cell_angle_alpha     90
_cell_angle_beta     90
_cell_angle_gamma     90
_cell_volume     2737.5(7)
_cell_formula_units_Z     4
_cell_measurement_reflns_used     4800
_cell_measurement_theta_min     2.86
_cell_measurement_theta_max     27.50
_cell_measurement_temperature     125.0(10)
_cell_special_details
;
 The final unit cell was obtained from the xyz centroids of
   4800 reflections after integration using the SAINT software
   package (Bruker, 2000).
;
_exptl_crystal_description     'platelet'
_exptl_crystal_colour     'orange'
_exptl_crystal_size_max     0.51
_exptl_crystal_size_mid     0.45
_exptl_crystal_size_min     0.03
_exptl_crystal_size_rad     ?
_exptl_crystal_density_diffrn     1.292
_exptl_crystal_density_meas     ?
_exptl_crystal_density_method     'not measured'
_exptl_crystal_F_000     1120
_exptl_absorpt_coefficient_mu     0.073
_exptl_absorpt_correction_type     'Multi-Scan'
_exptl_absorpt_process_details     '(SADABS, Sheldrick, Bruker, 2000))'
_exptl_absorpt_correction_T_min     0.9722
_exptl_absorpt_correction_T_max     0.9978
_exptl_special_details
; ?
;
_diffrn_ambient_temperature     125.0(10)
_diffrn_radiation_type     'MoK\a'
_diffrn_radiation_wavelength     0.71073
_diffrn_radiation_source     'fine focus sealed Siemens Mo tube '
_diffrn_radiation_monochromator     'parallel mounted graphite'
_diffrn_measurement_device_type
;
  Bruker Smart Apex; CCD area detector
;
_diffrn_measurement_method     'phi and omega scans'
_diffrn_detector_area_resol_mean     '4096x4096 / 62x62 (binned 512)'
_diffrn_reflns_number     10026
_diffrn_reflns_av_R_equivalents     0.0458
_diffrn_reflns_av_sigmaI/netI     0.0324
_diffrn_reflns_theta_min     3.24
_diffrn_reflns_theta_max     26.36
_diffrn_reflns_theta_full     25.00
_diffrn_measured_fraction_theta_max     0.998
_diffrn_measured_fraction_theta_full     0.998
_diffrn_reflns_limit_h_min     -28
_diffrn_reflns_limit_h_max     33
_diffrn_reflns_limit_k_min     -8
_diffrn_reflns_limit_k_max     8
_diffrn_reflns_limit_l_min     -17
_diffrn_reflns_limit_l_max     17
_diffrn_reflns_reduction_process
;
 Intensity data were corrected for Lorentz and polarization
  effects, decay and absorption and reduced to F~o~^2^
  using SAINT (Bruker, 2000) and SADABS (Sheldrick, 2001)
;
_diffrn_standards_number     0
_diffrn_standards_interval_count     ?
_diffrn_standards_interval_time     ?
_diffrn_standards_decay_%     0
loop_
    _diffrn_standard_refln_index_h
    _diffrn_standard_refln_index_k
    _diffrn_standard_refln_index_l
    ? ? ?
_refine_special_details
;
 Refinement of F^2^ against ALL reflections.  The weighted R-factor wR and
 goodness of fit S are based on F^2^, conventional R-factors R are based
 on F, with F set to zero for negative F^2^. The threshold expression of
 F^2^ > 2sigma(F^2^) is used only for calculating R-factors(gt) etc. and is
 not relevant to the choice of reflections for refinement.  R-factors based
 on F^2^ are statistically about twice as large as those based on F, and R-
 factors based on ALL data will be even larger.
;
_reflns_number_total     1428
_reflns_number_gt     1119
_reflns_threshold_expression     I>2\s(I)
_refine_ls_structure_factor_coef     Fsqd
_refine_ls_matrix_type     full
_refine_ls_R_factor_all     0.0556
_refine_ls_R_factor_gt     0.0377
_refine_ls_wR_factor_gt     0.0921
_refine_ls_wR_factor_ref     0.1012
_refine_ls_goodness_of_fit_ref     1.051
_refine_ls_restrained_S_all     1.051
_refine_ls_number_reflns     1428
_refine_ls_number_parameters     124
_refine_ls_number_restraints     0
_refine_ls_number_constraints     ?
_refine_ls_hydrogen_treatment     refall
_refine_ls_weighting_scheme     calc
_refine_ls_weighting_details
;calc w=1/[\s^2^(Fo^2^)+(0.0490P)^2^+1.7332P]
 where P=(Fo^2^+2Fc^2^)/3
;
_atom_sites_solution_hydrogens     difmap
_atom_sites_solution_primary     direct
_atom_sites_solution_secondary     direct
_refine_ls_shift/su_max     0.000
_refine_ls_shift/su_mean     0.000
_refine_diff_density_max     0.242
_refine_diff_density_min     -0.210
_refine_ls_extinction_method     none
_refine_ls_extinction_coef     ?
_refine_ls_abs_structure_details     ?
_refine_ls_abs_structure_Flack     ?
loop_
    _atom_type_symbol
    _atom_type_description
    _atom_type_scat_dispersion_real
    _atom_type_scat_dispersion_imag
    _atom_type_scat_source
    H H 0.0000 0.0000 'International Tables Vol C Tables 4.2.6.8 and 6.1.1.4'
    C C 0.0033 0.0016 'International Tables Vol C Tables 4.2.6.8 and 6.1.1.4'
_computing_data_collection     'SMART, Bruker Version 5.624, 2001'
_computing_cell_refinement     'SAINT, Bruker Version 6.02A, 2000'
_computing_data_reduction     'XPREP, Bruker Version 5.1/NT, 2000'
_computing_structure_solution
;
 SIR-97 (Altomare et al., 1999)
;
_computing_structure_refinement     'SHELXL-97 (Sheldrick, 1997)'
_computing_molecular_graphics
;
 PLUTO (Meetsma, 2004)
 PLATON (Spek, 2003)
;
_computing_publication_material     'PLATON (Spek, 2003)'
loop_
    _atom_site_type_symbol
    _atom_site_label
    _atom_site_fract_x
    _atom_site_fract_y
    _atom_site_fract_z
    _atom_site_U_iso_or_equiv
    _atom_site_thermal_displace_type
    _atom_site_calc_flag
    _atom_site_refinement_flags
    _atom_site_occupancy
    C C1 0.02723(7) 0.00000 0.00000 0.0156(5) Uani . . 1.000
    C C2 0.05315(5) -0.14435(18) 0.04909(9) 0.0160(4) Uani . . 1.000
    C C3 0.02670(5) -0.29541(18) 0.08757(8) 0.0162(4) Uani . . 1.000
    C C4 0.05192(6) -0.44699(19) 0.13405(9) 0.0193(4) Uani . . 1.000
    C C5 0.02634(6) -0.58862(18) 0.17511(9) 0.0213(4) Uani . . 1.000
    C C6 0.10755(5) -0.13436(18) 0.07266(9) 0.0168(4) Uani . . 1.000
    C C7 0.14287(5) -0.2473(2) 0.02915(10) 0.0214(4) Uani . . 1.000
    C C8 0.19178(6) -0.2505(2) 0.05983(11) 0.0265(5) Uani . . 1.000
    C C9 0.20663(6) -0.1387(2) 0.13433(11) 0.0285(5) Uani . . 1.000
    C C10 0.17202(6) -0.0252(2) 0.17824(11) 0.0281(5) Uani . . 1.000
    C C11 0.12299(6) -0.0236(2) 0.14796(9) 0.0218(4) Uani . . 1.000
    H H4 0.0882(6) -0.445(2) 0.1358(10) 0.022(4) Uiso . . 1.000
    H H5 0.0442(5) -0.688(2) 0.2072(11) 0.027(4) Uiso . . 1.000
    H H7 0.1324(6) -0.325(2) -0.0251(11) 0.023(4) Uiso . . 1.000
    H H8 0.2170(6) -0.330(2) 0.0266(11) 0.034(5) Uiso . . 1.000
    H H9 0.2416(7) -0.141(2) 0.1545(11) 0.033(4) Uiso . . 1.000
    H H10 0.1817(6) 0.056(2) 0.2302(13) 0.043(5) Uiso . . 1.000
    H H11 0.0976(6) 0.053(2) 0.1789(10) 0.019(4) Uiso . . 1.000
loop_
    _atom_site_aniso_label
    _atom_site_aniso_U_11
    _atom_site_aniso_U_22
    _atom_site_aniso_U_33
    _atom_site_aniso_U_12
    _atom_site_aniso_U_13
    _atom_site_aniso_U_23
    C1 0.0217(10) 0.0135(9) 0.0117(8) 0.0000 0.0000 -0.0017(7)
    C2 0.0212(7) 0.0145(6) 0.0122(6) 0.0012(5) 0.0017(5) -0.0018(5)
    C3 0.0235(7) 0.0145(6) 0.0107(6) 0.0014(5) 0.0008(5) -0.0017(5)
    C4 0.0247(8) 0.0178(7) 0.0155(6) 0.0040(6) 0.0010(6) 0.0005(5)
    C5 0.0327(8) 0.0149(6) 0.0163(7) 0.0044(6) 0.0005(6) 0.0022(5)
    C6 0.0196(7) 0.0164(6) 0.0145(6) 0.0003(5) -0.0001(5) 0.0053(5)
    C7 0.0247(8) 0.0175(7) 0.0219(7) 0.0004(6) 0.0032(6) 0.0011(6)
    C8 0.0231(8) 0.0240(8) 0.0324(8) 0.0033(7) 0.0055(6) 0.0052(6)
    C9 0.0191(8) 0.0353(9) 0.0311(8) -0.0013(7) -0.0036(6) 0.0095(7)
    C10 0.0313(9) 0.0326(9) 0.0205(7) -0.0044(7) -0.0061(6) 0.0009(6)
    C11 0.0258(8) 0.0221(7) 0.0174(7) 0.0018(6) 0.0010(6) 0.0000(6)
_geom_special_details
;
 Bond distances, angles etc. have been calculated using the
 rounded fractional coordinates. All su's are estimated
 from the variances of the (full) variance-covariance matrix.
 The cell esds are taken into account in the estimation of
 distances, angles and torsion angles
;
loop_
    _geom_bond_atom_site_label_1
    _geom_bond_atom_site_label_2
    _geom_bond_site_symmetry_1
    _geom_bond_site_symmetry_2
    _geom_bond_distance
    _geom_bond_publ_flag
    C1 C2 . . 1.4295(16) no
    C1 C2 . 3_555 1.4295(16) no
    C1 C1 . 5_555 1.459(3) no
    C2 C3 . . 1.4059(18) no
    C2 C6 . . 1.4972(19) no
    C3 C4 . . 1.4412(19) no
    C3 C3 . 7_555 1.4305(19) no
    C4 C5 . . 1.358(2) no
    C5 C5 . 7_555 1.411(2) no
    C6 C7 . . 1.3913(19) no
    C6 C11 . . 1.3975(19) no
    C7 C8 . . 1.381(2) no
    C8 C9 . . 1.388(2) no
    C9 C10 . . 1.383(2) no
    C10 C11 . . 1.383(2) no
    C4 H4 . . 0.972(16) no
    C5 H5 . . 0.973(15) no
    C7 H7 . . 0.993(15) no
    C8 H8 . . 1.003(15) no
    C9 H9 . . 0.980(19) no
    C10 H10 . . 0.977(17) no
    C11 H11 . . 0.979(15) no
loop_
    _geom_contact_atom_site_label_1
    _geom_contact_atom_site_label_2
    _geom_contact_distance
    _geom_contact_site_symmetry_1
    _geom_contact_site_symmetry_2
    _geom_contact_publ_flag
    C2 C11 3.582(2) . 3_555 no
    C4 C7 3.197(2) . . no
    C4 C11 3.590(2) . . no
    C6 C6 2.8286(19) . 3_555 no
    C6 C11 3.3665(19) . 3_555 no
    C6 C7 3.239(2) . 3_555 no
    C7 C4 3.197(2) . . no
    C7 C6 3.239(2) . 3_555 no
    C7 C11 3.229(2) . 3_555 no
    C8 C8 3.555(2) . 13_545 no
    C11 C4 3.590(2) . . no
    C11 C6 3.3665(19) . 3_555 no
    C11 C2 3.582(2) . 3_555 no
    C11 C7 3.229(2) . 3_555 no
    C3 H5 3.060(16) . 6_555 no
    C4 H5 2.934(15) . 6_555 no
    C4 H11 2.932(15) . 6_545 no
    C5 H11 3.000(15) . 6_545 no
    C6 H4 2.458(14) . . no
    C7 H4 2.543(15) . . no
    C7 H7 3.081(14) . 3_545 no
    C8 H8 2.797(16) . 13_545 no
    C9 H10 2.994(16) . 6_545 no
    C9 H8 3.081(16) . 13_545 no
    C11 H7 3.063(15) . 3_555 no
    H4 C6 2.458(14) . . no
    H4 C7 2.543(15) . . no
    H4 H7 2.57(2) . 3_545 no
    H5 H11 2.38(2) . 1_545 no
    H5 C3 3.060(16) . 6_545 no
    H5 C4 2.934(15) . 6_545 no
    H7 C7 3.081(14) . 3_545 no
    H7 C11 3.063(15) . 3_555 no
    H7 H4 2.57(2) . 3_545 no
    H8 H8 2.55(2) . 3_545 no
    H8 C8 2.797(16) . 13_545 no
    H8 C9 3.081(16) . 13_545 no
    H8 H8 2.24(2) . 13_545 no
    H10 C9 2.994(16) . 6_555 no
    H11 H5 2.38(2) . 1_565 no
    H11 C4 2.932(15) . 6_555 no
    H11 C5 3.000(15) . 6_555 no
loop_
    _geom_angle_atom_site_label_1
    _geom_angle_atom_site_label_2
    _geom_angle_atom_site_label_3
    _geom_angle_site_symmetry_1
    _geom_angle_site_symmetry_2
    _geom_angle_site_symmetry_3
    _geom_angle
    _geom_angle_publ_flag
    C2 C1 C2 . . 3_555 121.88(15) no
    C1 C1 C2 5_555 . . 119.06(8) no
    C1 C1 C2 5_555 . 3_555 119.06(8) no
    C1 C2 C3 . . . 120.28(13) no
    C1 C2 C6 . . . 123.22(12) no
    C3 C2 C6 . . . 116.10(11) no
    C2 C3 C4 . . . 121.62(12) no
    C2 C3 C3 . . 7_555 120.26(12) no
    C3 C3 C4 7_555 . . 117.96(12) no
    C3 C4 C5 . . . 121.72(14) no
    C4 C5 C5 . . 7_555 120.31(13) no
    C2 C6 C7 . . . 122.29(12) no
    C2 C6 C11 . . . 119.17(12) no
    C7 C6 C11 . . . 118.15(13) no
    C6 C7 C8 . . . 120.91(13) no
    C7 C8 C9 . . . 120.27(14) no
    C8 C9 C10 . . . 119.57(15) no
    C9 C10 C11 . . . 120.04(14) no
    C6 C11 C10 . . . 121.06(14) no
    C3 C4 H4 . . . 118.0(9) no
    C5 C4 H4 . . . 120.3(9) no
    C4 C5 H5 . . . 120.2(8) no
    C5 C5 H5 7_555 . . 119.5(8) no
    C6 C7 H7 . . . 118.8(9) no
    C8 C7 H7 . . . 120.3(9) no
    C7 C8 H8 . . . 119.9(9) no
    C9 C8 H8 . . . 119.8(9) no
    C8 C9 H9 . . . 119.2(9) no
    C10 C9 H9 . . . 121.2(9) no
    C9 C10 H10 . . . 121.0(9) no
    C11 C10 H10 . . . 118.9(9) no
    C6 C11 H11 . . . 117.3(9) no
    C10 C11 H11 . . . 121.6(9) no
loop_
    _geom_torsion_atom_site_label_1
    _geom_torsion_atom_site_label_2
    _geom_torsion_atom_site_label_3
    _geom_torsion_atom_site_label_4
    _geom_torsion_site_symmetry_1
    _geom_torsion_site_symmetry_2
    _geom_torsion_site_symmetry_3
    _geom_torsion_site_symmetry_4
    _geom_torsion
    _geom_torsion_publ_flag
    C2 C1 C2 C3 3_555 . . . -172.80(10) no
    C2 C1 C2 C6 3_555 . . . 14.73(15) no
    C1 C1 C2 C3 5_555 . . . 7.20(13) no
    C1 C1 C2 C6 5_555 . . . -165.28(9) no
    C1 C2 C3 C4 . . . . 177.39(10) no
    C1 C2 C3 C3 . . . 7_555 -7.29(17) no
    C6 C2 C3 C4 . . . . -9.62(18) no
    C6 C2 C3 C3 . . . 7_555 165.71(11) no
    C1 C2 C6 C7 . . . . -109.97(14) no
    C1 C2 C6 C11 . . . . 77.38(16) no
    C3 C2 C6 C7 . . . . 77.27(16) no
    C3 C2 C6 C11 . . . . -95.38(15) no
    C2 C3 C4 C5 . . . . 176.86(12) no
    C3 C3 C4 C5 7_555 . . . 1.43(18) no
    C2 C3 C3 C2 . . 7_555 7_555 0.00(18) no
    C2 C3 C3 C4 . . 7_555 7_555 -175.49(11) no
    C4 C3 C3 C2 . . 7_555 7_555 175.49(11) no
    C4 C3 C3 C4 . . 7_555 7_555 0.00(17) no
    C3 C4 C5 C5 . . . 7_555 -1.5(2) no
    C4 C5 C5 C4 . . 7_555 7_555 0.0(2) no
    C2 C6 C7 C8 . . . . -172.42(13) no
    C11 C6 C7 C8 . . . . 0.3(2) no
    C2 C6 C11 C10 . . . . 173.27(13) no
    C7 C6 C11 C10 . . . . 0.3(2) no
    C6 C7 C8 C9 . . . . -0.8(2) no
    C7 C8 C9 C10 . . . . 0.6(2) no
    C8 C9 C10 C11 . . . . 0.0(2) no
    C9 C10 C11 C6 . . . . -0.5(2) no
data_150K
_chemical_name_systematic
; ?
;
_chemical_name_common     ?
_chemical_formula_moiety     'C42 H28'
_chemical_formula_sum     'C42 H28'
_chemical_formula_structural     ?
_chemical_formula_iupac     ?
_chemical_formula_weight     532.68
_chemical_melting_point     ?
_symmetry_cell_setting     Orthorhombic
_symmetry_space_group_name_H-M     'C m c a'
_symmetry_space_group_name_Hall     '-C 2bc 2'
loop_
    _symmetry_equiv_pos_site_id
    _symmetry_equiv_pos_as_xyz
    1 x,y,z
    2 -x,1/2-y,1/2+z
    3 x,-y,-z
    4 -x,1/2+y,1/2-z
    5 -x,-y,-z
    6 x,1/2+y,1/2-z
    7 -x,y,z
    8 x,1/2-y,1/2+z
    9 1/2+x,1/2+y,z
    10 1/2-x,-y,1/2+z
    11 1/2+x,1/2-y,-z
    12 1/2-x,y,1/2-z
    13 1/2-x,1/2-y,-z
    14 1/2+x,y,1/2-z
    15 1/2-x,1/2+y,z
    16 1/2+x,-y,1/2+z
_cell_length_a     26.775(4)
_cell_length_b     7.1680(10)
_cell_length_c     14.258(2)
_cell_angle_alpha     90
_cell_angle_beta     90
_cell_angle_gamma     90
_cell_volume     2736.4(7)
_cell_formula_units_Z     4
_cell_measurement_reflns_used     4648
_cell_measurement_theta_min     2.86
_cell_measurement_theta_max     27.46
_cell_measurement_temperature     150.0(10)
_cell_special_details
;
 The final unit cell was obtained from the xyz centroids of
   4648 reflections after integration using the SAINT software
   package (Bruker, 2000).
;
_exptl_crystal_description     'platelet'
_exptl_crystal_colour     'orange'
_exptl_crystal_size_max     0.51
_exptl_crystal_size_mid     0.45
_exptl_crystal_size_min     0.03
_exptl_crystal_size_rad     ?
_exptl_crystal_density_diffrn     1.293
_exptl_crystal_density_meas     ?
_exptl_crystal_density_method     'not measured'
_exptl_crystal_F_000     1120
_exptl_absorpt_coefficient_mu     0.073
_exptl_absorpt_correction_type     'Multi-Scan'
_exptl_absorpt_process_details     '(SADABS, Sheldrick, Bruker, 2000))'
_exptl_absorpt_correction_T_min     0.9740
_exptl_absorpt_correction_T_max     0.9978
_exptl_special_details
; ?
;
_diffrn_ambient_temperature     150.0(10)
_diffrn_radiation_type     'MoK\a'
_diffrn_radiation_wavelength     0.71073
_diffrn_radiation_source     'fine focus sealed Siemens Mo tube '
_diffrn_radiation_monochromator     'parallel mounted graphite'
_diffrn_measurement_device_type
;
  Bruker Smart Apex; CCD area detector
;
_diffrn_measurement_method     'phi and omega scans'
_diffrn_detector_area_resol_mean     '4096x4096 / 62x62 (binned 512)'
_diffrn_reflns_number     10088
_diffrn_reflns_av_R_equivalents     0.0446
_diffrn_reflns_av_sigmaI/netI     0.0309
_diffrn_reflns_theta_min     3.24
_diffrn_reflns_theta_max     26.37
_diffrn_reflns_theta_full     25.00
_diffrn_measured_fraction_theta_max     0.998
_diffrn_measured_fraction_theta_full     0.998
_diffrn_reflns_limit_h_min     -33
_diffrn_reflns_limit_h_max     28
_diffrn_reflns_limit_k_min     -8
_diffrn_reflns_limit_k_max     8
_diffrn_reflns_limit_l_min     -17
_diffrn_reflns_limit_l_max     17
_diffrn_reflns_reduction_process
;
 Intensity data were corrected for Lorentz and polarization
  effects, decay and absorption and reduced to F~o~^2^
  using SAINT (Bruker, 2000) and SADABS (Sheldrick, 2001)
;
_diffrn_standards_number     0
_diffrn_standards_interval_count     ?
_diffrn_standards_interval_time     ?
_diffrn_standards_decay_%     0
loop_
    _diffrn_standard_refln_index_h
    _diffrn_standard_refln_index_k
    _diffrn_standard_refln_index_l
    ? ? ?
_refine_special_details
;
 Refinement of F^2^ against ALL reflections.  The weighted R-factor wR and
 goodness of fit S are based on F^2^, conventional R-factors R are based
 on F, with F set to zero for negative F^2^. The threshold expression of
 F^2^ > 2sigma(F^2^) is used only for calculating R-factors(gt) etc. and is
 not relevant to the choice of reflections for refinement.  R-factors based
 on F^2^ are statistically about twice as large as those based on F, and R-
 factors based on ALL data will be even larger.
;
_reflns_number_total     1427
_reflns_number_gt     1101
_reflns_threshold_expression     I>2\s(I)
_refine_ls_structure_factor_coef     Fsqd
_refine_ls_matrix_type     full
_refine_ls_R_factor_all     0.0576
_refine_ls_R_factor_gt     0.0387
_refine_ls_wR_factor_gt     0.0949
_refine_ls_wR_factor_ref     0.1048
_refine_ls_goodness_of_fit_ref     1.038
_refine_ls_restrained_S_all     1.038
_refine_ls_number_reflns     1427
_refine_ls_number_parameters     124
_refine_ls_number_restraints     0
_refine_ls_number_constraints     ?
_refine_ls_hydrogen_treatment     refall
_refine_ls_weighting_scheme     calc
_refine_ls_weighting_details
;calc w=1/[\s^2^(Fo^2^)+(0.0526P)^2^+1.7289P]
 where P=(Fo^2^+2Fc^2^)/3
;
_atom_sites_solution_hydrogens     difmap
_atom_sites_solution_primary     direct
_atom_sites_solution_secondary     direct
_refine_ls_shift/su_max     0.000
_refine_ls_shift/su_mean     0.000
_refine_diff_density_max     0.252
_refine_diff_density_min     -0.179
_refine_ls_extinction_method     none
_refine_ls_extinction_coef     ?
_refine_ls_abs_structure_details     ?
_refine_ls_abs_structure_Flack     ?
loop_
    _atom_type_symbol
    _atom_type_description
    _atom_type_scat_dispersion_real
    _atom_type_scat_dispersion_imag
    _atom_type_scat_source
    H H 0.0000 0.0000 'International Tables Vol C Tables 4.2.6.8 and 6.1.1.4'
    C C 0.0033 0.0016 'International Tables Vol C Tables 4.2.6.8 and 6.1.1.4'
_computing_data_collection     'SMART, Bruker Version 5.624, 2001'
_computing_cell_refinement     'SAINT, Bruker Version 6.02A, 2000'
_computing_data_reduction     'XPREP, Bruker Version 5.1/NT, 2000'
_computing_structure_solution
;
 SIR-97 (Altomare et al., 1999)
;
_computing_structure_refinement     'SHELXL-97 (Sheldrick, 1997)'
_computing_molecular_graphics
;
 PLUTO (Meetsma, 2004)
 PLATON (Spek, 2003)
;
_computing_publication_material     'PLATON (Spek, 2003)'
loop_
    _atom_site_type_symbol
    _atom_site_label
    _atom_site_fract_x
    _atom_site_fract_y
    _atom_site_fract_z
    _atom_site_U_iso_or_equiv
    _atom_site_thermal_displace_type
    _atom_site_calc_flag
    _atom_site_refinement_flags
    _atom_site_occupancy
    C C1 0.02727(7) 0.00000 0.00000 0.0172(5) Uani . . 1.000
    C C2 0.05307(5) -0.14417(18) 0.04907(9) 0.0177(4) Uani . . 1.000
    C C3 0.02670(5) -0.29515(18) 0.08757(8) 0.0181(4) Uani . . 1.000
    C C4 0.05186(6) -0.44662(19) 0.13409(9) 0.0220(4) Uani . . 1.000
    C C5 0.02630(6) -0.58805(19) 0.17505(10) 0.0242(4) Uani . . 1.000
    C C6 0.10744(5) -0.13413(18) 0.07267(9) 0.0191(4) Uani . . 1.000
    C C7 0.14283(5) -0.2470(2) 0.02912(10) 0.0242(4) Uani . . 1.000
    C C8 0.19169(6) -0.2498(2) 0.06004(12) 0.0306(5) Uani . . 1.000
    C C9 0.20647(6) -0.1379(2) 0.13425(11) 0.0335(5) Uani . . 1.000
    C C10 0.17191(6) -0.0249(2) 0.17798(11) 0.0324(5) Uani . . 1.000
    C C11 0.12289(6) -0.0237(2) 0.14788(10) 0.0252(4) Uani . . 1.000
    H H4 0.0877(6) -0.448(2) 0.1341(11) 0.023(4) Uiso . . 1.000
    H H5 0.0447(6) -0.688(2) 0.2071(11) 0.031(4) Uiso . . 1.000
    H H7 0.1328(6) -0.324(2) -0.0250(11) 0.031(4) Uiso . . 1.000
    H H8 0.2163(6) -0.330(2) 0.0272(12) 0.038(5) Uiso . . 1.000
    H H9 0.2412(7) -0.142(2) 0.1537(12) 0.043(5) Uiso . . 1.000
    H H10 0.1813(7) 0.055(3) 0.2297(14) 0.048(5) Uiso . . 1.000
    H H11 0.0976(6) 0.053(2) 0.1778(11) 0.026(4) Uiso . . 1.000
loop_
    _atom_site_aniso_label
    _atom_site_aniso_U_11
    _atom_site_aniso_U_22
    _atom_site_aniso_U_33
    _atom_site_aniso_U_12
    _atom_site_aniso_U_13
    _atom_site_aniso_U_23
    C1 0.0227(10) 0.0165(9) 0.0125(8) 0.0000 0.0000 -0.0024(7)
    C2 0.0228(8) 0.0167(6) 0.0136(6) 0.0018(5) 0.0015(5) -0.0016(5)
    C3 0.0253(7) 0.0171(7) 0.0118(6) 0.0023(5) 0.0008(5) -0.0018(5)
    C4 0.0270(9) 0.0210(7) 0.0179(7) 0.0047(6) 0.0012(6) 0.0012(6)
    C5 0.0358(9) 0.0179(7) 0.0190(7) 0.0051(6) 0.0002(6) 0.0035(5)
    C6 0.0220(8) 0.0190(7) 0.0162(6) 0.0004(6) -0.0004(5) 0.0053(5)
    C7 0.0268(8) 0.0209(7) 0.0248(7) 0.0006(6) 0.0032(6) 0.0018(6)
    C8 0.0234(8) 0.0304(8) 0.0379(9) 0.0032(7) 0.0066(7) 0.0065(7)
    C9 0.0216(9) 0.0428(9) 0.0361(9) -0.0010(7) -0.0048(7) 0.0119(8)
    C10 0.0332(9) 0.0402(9) 0.0237(8) -0.0050(8) -0.0074(7) 0.0005(7)
    C11 0.0287(8) 0.0275(8) 0.0194(7) 0.0022(7) -0.0001(6) -0.0007(6)
_geom_special_details
;
 Bond distances, angles etc. have been calculated using the
 rounded fractional coordinates. All su's are estimated
 from the variances of the (full) variance-covariance matrix.
 The cell esds are taken into account in the estimation of
 distances, angles and torsion angles
;
loop_
    _geom_bond_atom_site_label_1
    _geom_bond_atom_site_label_2
    _geom_bond_site_symmetry_1
    _geom_bond_site_symmetry_2
    _geom_bond_distance
    _geom_bond_publ_flag
    C1 C2 . . 1.4264(16) no
    C1 C2 . 3_555 1.4264(16) no
    C1 C1 . 5_555 1.460(3) no
    C2 C3 . . 1.4039(18) no
    C2 C6 . . 1.4959(19) no
    C3 C4 . . 1.4397(19) no
    C3 C3 . 7_555 1.4298(19) no
    C4 C5 . . 1.355(2) no
    C5 C5 . 7_555 1.408(2) no
    C6 C7 . . 1.3921(19) no
    C6 C11 . . 1.3956(19) no
    C7 C8 . . 1.381(2) no
    C8 C9 . . 1.386(2) no
    C9 C10 . . 1.379(2) no
    C10 C11 . . 1.381(2) no
    C4 H4 . . 0.960(16) no
    C5 H5 . . 0.982(15) no
    C7 H7 . . 0.986(15) no
    C8 H8 . . 0.992(16) no
    C9 H9 . . 0.971(19) no
    C10 H10 . . 0.97(2) no
    C11 H11 . . 0.971(16) no
loop_
    _geom_contact_atom_site_label_1
    _geom_contact_atom_site_label_2
    _geom_contact_distance
    _geom_contact_site_symmetry_1
    _geom_contact_site_symmetry_2
    _geom_contact_publ_flag
    C2 C11 3.582(2) . 3_555 no
    C4 C7 3.197(2) . . no
    C4 C11 3.584(2) . . no
    C6 C6 2.8270(19) . 3_555 no
    C6 C11 3.367(2) . 3_555 no
    C6 C7 3.235(2) . 3_555 no
    C7 C4 3.197(2) . . no
    C7 C6 3.235(2) . 3_555 no
    C7 C11 3.228(2) . 3_555 no
    C8 C8 3.561(2) . 13_545 no
    C11 C2 3.582(2) . 3_555 no
    C11 C4 3.584(2) . . no
    C11 C6 3.367(2) . 3_555 no
    C11 C7 3.228(2) . 3_555 no
    C3 H5 3.065(16) . 6_555 no
    C4 H5 2.933(15) . 6_555 no
    C4 H11 2.949(16) . 6_545 no
    C5 H11 3.011(16) . 6_545 no
    C6 H4 2.472(15) . . no
    C7 H4 2.549(15) . . no
    C7 H7 3.087(14) . 3_545 no
    C8 H8 2.818(16) . 13_545 no
    C9 H10 3.01(2) . 6_545 no
    C11 H7 3.058(15) . 3_555 no
    H4 C6 2.472(15) . . no
    H4 C7 2.549(15) . . no
    H4 H7 2.56(2) . 3_545 no
    H5 H11 2.37(2) . 1_545 no
    H5 C3 3.065(16) . 6_545 no
    H5 C4 2.933(15) . 6_545 no
    H7 C7 3.087(14) . 3_545 no
    H7 C11 3.058(15) . 3_555 no
    H7 H4 2.56(2) . 3_545 no
    H8 H8 2.56(2) . 3_545 no
    H8 C8 2.818(16) . 13_545 no
    H8 H8 2.28(2) . 13_545 no
    H10 C9 3.01(2) . 6_555 no
    H11 H5 2.37(2) . 1_565 no
    H11 C4 2.949(16) . 6_555 no
    H11 C5 3.011(16) . 6_555 no
loop_
    _geom_angle_atom_site_label_1
    _geom_angle_atom_site_label_2
    _geom_angle_atom_site_label_3
    _geom_angle_site_symmetry_1
    _geom_angle_site_symmetry_2
    _geom_angle_site_symmetry_3
    _geom_angle
    _geom_angle_publ_flag
    C2 C1 C2 . . 3_555 122.07(15) no
    C1 C1 C2 5_555 . . 118.97(8) no
    C1 C1 C2 5_555 . 3_555 118.97(8) no
    C1 C2 C3 . . . 120.44(13) no
    C1 C2 C6 . . . 123.15(12) no
    C3 C2 C6 . . . 116.01(11) no
    C2 C3 C4 . . . 121.75(12) no
    C2 C3 C3 . . 7_555 120.19(12) no
    C3 C3 C4 7_555 . . 117.90(12) no
    C3 C4 C5 . . . 121.76(14) no
    C4 C5 C5 . . 7_555 120.33(13) no
    C2 C6 C7 . . . 122.28(12) no
    C2 C6 C11 . . . 119.25(12) no
    C7 C6 C11 . . . 118.07(13) no
    C6 C7 C8 . . . 120.73(13) no
    C7 C8 C9 . . . 120.40(14) no
    C8 C9 C10 . . . 119.59(15) no
    C9 C10 C11 . . . 120.07(14) no
    C6 C11 C10 . . . 121.13(14) no
    C3 C4 H4 . . . 118.4(9) no
    C5 C4 H4 . . . 119.8(9) no
    C4 C5 H5 . . . 119.5(9) no
    C5 C5 H5 7_555 . . 120.1(9) no
    C6 C7 H7 . . . 119.3(9) no
    C8 C7 H7 . . . 120.0(9) no
    C7 C8 H8 . . . 119.2(10) no
    C9 C8 H8 . . . 120.4(10) no
    C8 C9 H9 . . . 118.3(9) no
    C10 C9 H9 . . . 122.1(10) no
    C9 C10 H10 . . . 121.2(11) no
    C11 C10 H10 . . . 118.7(11) no
    C6 C11 H11 . . . 116.9(9) no
    C10 C11 H11 . . . 122.0(9) no
loop_
    _geom_torsion_atom_site_label_1
    _geom_torsion_atom_site_label_2
    _geom_torsion_atom_site_label_3
    _geom_torsion_atom_site_label_4
    _geom_torsion_site_symmetry_1
    _geom_torsion_site_symmetry_2
    _geom_torsion_site_symmetry_3
    _geom_torsion_site_symmetry_4
    _geom_torsion
    _geom_torsion_publ_flag
    C2 C1 C2 C3 3_555 . . . -172.78(10) no
    C2 C1 C2 C6 3_555 . . . 14.76(15) no
    C1 C1 C2 C3 5_555 . . . 7.22(13) no
    C1 C1 C2 C6 5_555 . . . -165.25(9) no
    C1 C2 C3 C4 . . . . 177.39(10) no
    C1 C2 C3 C3 . . . 7_555 -7.31(17) no
    C6 C2 C3 C4 . . . . -9.62(18) no
    C6 C2 C3 C3 . . . 7_555 165.67(11) no
    C1 C2 C6 C7 . . . . -109.81(14) no
    C1 C2 C6 C11 . . . . 77.54(16) no
    C3 C2 C6 C7 . . . . 77.42(16) no
    C3 C2 C6 C11 . . . . -95.24(15) no
    C2 C3 C4 C5 . . . . 176.90(13) no
    C3 C3 C4 C5 7_555 . . . 1.50(19) no
    C2 C3 C3 C2 . . 7_555 7_555 0.00(18) no
    C2 C3 C3 C4 . . 7_555 7_555 -175.47(11) no
    C4 C3 C3 C2 . . 7_555 7_555 175.47(11) no
    C4 C3 C3 C4 . . 7_555 7_555 0.00(17) no
    C3 C4 C5 C5 . . . 7_555 -1.5(2) no
    C4 C5 C5 C4 . . 7_555 7_555 0.0(2) no
    C2 C6 C7 C8 . . . . -172.41(13) no
    C11 C6 C7 C8 . . . . 0.3(2) no
    C2 C6 C11 C10 . . . . 173.45(13) no
    C7 C6 C11 C10 . . . . 0.5(2) no
    C6 C7 C8 C9 . . . . -1.0(2) no
    C7 C8 C9 C10 . . . . 0.8(2) no
    C8 C9 C10 C11 . . . . 0.1(2) no
    C9 C10 C11 C6 . . . . -0.7(2) no
data_175K
_chemical_name_systematic
; ?
;
_chemical_name_common     ?
_chemical_formula_moiety     'C42 H28'
_chemical_formula_sum     'C42 H28'
_chemical_formula_structural     ?
_chemical_formula_iupac     ?
_chemical_formula_weight     532.68
_chemical_melting_point     ?
_symmetry_cell_setting     Orthorhombic
_symmetry_space_group_name_H-M     'C m c a'
_symmetry_space_group_name_Hall     '-C 2bc 2'
loop_
    _symmetry_equiv_pos_site_id
    _symmetry_equiv_pos_as_xyz
    1 x,y,z
    2 -x,1/2-y,1/2+z
    3 x,-y,-z
    4 -x,1/2+y,1/2-z
    5 -x,-y,-z
    6 x,1/2+y,1/2-z
    7 -x,y,z
    8 x,1/2-y,1/2+z
    9 1/2+x,1/2+y,z
    10 1/2-x,-y,1/2+z
    11 1/2+x,1/2-y,-z
    12 1/2-x,y,1/2-z
    13 1/2-x,1/2-y,-z
    14 1/2+x,y,1/2-z
    15 1/2-x,1/2+y,z
    16 1/2+x,-y,1/2+z
_cell_length_a     26.828(4)
_cell_length_b     7.1810(10)
_cell_length_c     14.306(2)
_cell_angle_alpha     90
_cell_angle_beta     90
_cell_angle_gamma     90
_cell_volume     2756.1(7)
_cell_formula_units_Z     4
_cell_measurement_reflns_used     4431
_cell_measurement_theta_min     2.85
_cell_measurement_theta_max     27.46
_cell_measurement_temperature     175.0(10)
_cell_special_details
;
 The final unit cell was obtained from the xyz centroids of
   4431 reflections after integration using the SAINT software
   package (Bruker, 2000).
;
_exptl_crystal_description     'platelet'
_exptl_crystal_colour     'orange'
_exptl_crystal_size_max     0.51
_exptl_crystal_size_mid     0.45
_exptl_crystal_size_min     0.03
_exptl_crystal_size_rad     ?
_exptl_crystal_density_diffrn     1.284
_exptl_crystal_density_meas     ?
_exptl_crystal_density_method     'not measured'
_exptl_crystal_F_000     1120
_exptl_absorpt_coefficient_mu     0.073
_exptl_absorpt_correction_type     'Multi-Scan'
_exptl_absorpt_process_details     '(SADABS, Sheldrick, Bruker, 2000))'
_exptl_absorpt_correction_T_min     0.9612
_exptl_absorpt_correction_T_max     0.9978
_exptl_special_details
; ?
;
_diffrn_ambient_temperature     175.0(10)
_diffrn_radiation_type     'MoK\a'
_diffrn_radiation_wavelength     0.71073
_diffrn_radiation_source     'fine focus sealed Siemens Mo tube '
_diffrn_radiation_monochromator     'parallel mounted graphite'
_diffrn_measurement_device_type
;
  Bruker Smart Apex; CCD area detector
;
_diffrn_measurement_method     'phi and omega scans'
_diffrn_detector_area_resol_mean     '4096x4096 / 62x62 (binned 512)'
_diffrn_reflns_number     10119
_diffrn_reflns_av_R_equivalents     0.0460
_diffrn_reflns_av_sigmaI/netI     0.0333
_diffrn_reflns_theta_min     3.23
_diffrn_reflns_theta_max     26.37
_diffrn_reflns_theta_full     25.00
_diffrn_measured_fraction_theta_max     0.998
_diffrn_measured_fraction_theta_full     0.998
_diffrn_reflns_limit_h_min     -33
_diffrn_reflns_limit_h_max     28
_diffrn_reflns_limit_k_min     -8
_diffrn_reflns_limit_k_max     8
_diffrn_reflns_limit_l_min     -17
_diffrn_reflns_limit_l_max     17
_diffrn_reflns_reduction_process
;
 Intensity data were corrected for Lorentz and polarization
  effects, decay and absorption and reduced to F~o~^2^
  using SAINT (Bruker, 2000) and SADABS (Sheldrick, 2001)
;
_diffrn_standards_number     0
_diffrn_standards_interval_count     ?
_diffrn_standards_interval_time     ?
_diffrn_standards_decay_%     0
loop_
    _diffrn_standard_refln_index_h
    _diffrn_standard_refln_index_k
    _diffrn_standard_refln_index_l
    ? ? ?
_refine_special_details
;
 Refinement of F^2^ against ALL reflections.  The weighted R-factor wR and
 goodness of fit S are based on F^2^, conventional R-factors R are based
 on F, with F set to zero for negative F^2^. The threshold expression of
 F^2^ > 2sigma(F^2^) is used only for calculating R-factors(gt) etc. and is
 not relevant to the choice of reflections for refinement.  R-factors based
 on F^2^ are statistically about twice as large as those based on F, and R-
 factors based on ALL data will be even larger.
;
_reflns_number_total     1434
_reflns_number_gt     1085
_reflns_threshold_expression     I>2\s(I)
_refine_ls_structure_factor_coef     Fsqd
_refine_ls_matrix_type     full
_refine_ls_R_factor_all     0.0580
_refine_ls_R_factor_gt     0.0388
_refine_ls_wR_factor_gt     0.0910
_refine_ls_wR_factor_ref     0.1002
_refine_ls_goodness_of_fit_ref     1.057
_refine_ls_restrained_S_all     1.057
_refine_ls_number_reflns     1434
_refine_ls_number_parameters     124
_refine_ls_number_restraints     0
_refine_ls_number_constraints     ?
_refine_ls_hydrogen_treatment     refall
_refine_ls_weighting_scheme     calc
_refine_ls_weighting_details
;calc w=1/[\s^2^(Fo^2^)+(0.0492P)^2^+1.0967P]
 where P=(Fo^2^+2Fc^2^)/3
;
_atom_sites_solution_hydrogens     difmap
_atom_sites_solution_primary     direct
_atom_sites_solution_secondary     direct
_refine_ls_shift/su_max     0.000
_refine_ls_shift/su_mean     0.000
_refine_diff_density_max     0.223
_refine_diff_density_min     -0.196
_refine_ls_extinction_method     none
_refine_ls_extinction_coef     ?
_refine_ls_abs_structure_details     ?
_refine_ls_abs_structure_Flack     ?
loop_
    _atom_type_symbol
    _atom_type_description
    _atom_type_scat_dispersion_real
    _atom_type_scat_dispersion_imag
    _atom_type_scat_source
    H H 0.0000 0.0000 'International Tables Vol C Tables 4.2.6.8 and 6.1.1.4'
    C C 0.0033 0.0016 'International Tables Vol C Tables 4.2.6.8 and 6.1.1.4'
_computing_data_collection     'SMART, Bruker Version 5.624, 2001'
_computing_cell_refinement     'SAINT, Bruker Version 6.02A, 2000'
_computing_data_reduction     'XPREP, Bruker Version 5.1/NT, 2000'
_computing_structure_solution
;
 SIR-97 (Altomare et al., 1999)
;
_computing_structure_refinement     'SHELXL-97 (Sheldrick, 1997)'
_computing_molecular_graphics
;
 PLUTO (Meetsma, 2004)
 PLATON (Spek, 2003)
;
_computing_publication_material     'PLATON (Spek, 2003)'
loop_
    _atom_site_type_symbol
    _atom_site_label
    _atom_site_fract_x
    _atom_site_fract_y
    _atom_site_fract_z
    _atom_site_U_iso_or_equiv
    _atom_site_thermal_displace_type
    _atom_site_calc_flag
    _atom_site_refinement_flags
    _atom_site_occupancy
    C C1 0.02718(7) 0.00000 0.00000 0.0197(5) Uani . . 1.000
    C C2 0.05303(5) -0.14399(17) 0.04909(8) 0.0206(4) Uani . . 1.000
    C C3 0.02673(5) -0.29472(17) 0.08762(8) 0.0206(4) Uani . . 1.000
    C C4 0.05186(6) -0.44615(18) 0.13392(9) 0.0251(4) Uani . . 1.000
    C C5 0.02622(6) -0.58729(19) 0.17496(9) 0.0282(4) Uani . . 1.000
    C C6 0.10736(5) -0.13391(18) 0.07267(9) 0.0216(4) Uani . . 1.000
    C C7 0.14277(5) -0.24639(19) 0.02938(10) 0.0278(4) Uani . . 1.000
    C C8 0.19159(6) -0.2491(2) 0.06005(11) 0.0353(5) Uani . . 1.000
    C C9 0.20620(6) -0.1376(2) 0.13407(11) 0.0388(5) Uani . . 1.000
    C C10 0.17173(6) -0.0245(2) 0.17770(11) 0.0379(5) Uani . . 1.000
    C C11 0.12281(6) -0.0235(2) 0.14762(9) 0.0290(5) Uani . . 1.000
    H H4 0.0886(6) -0.447(2) 0.1352(10) 0.031(4) Uiso . . 1.000
    H H5 0.0443(5) -0.686(2) 0.2063(10) 0.034(4) Uiso . . 1.000
    H H7 0.1330(6) -0.324(2) -0.0237(11) 0.035(4) Uiso . . 1.000
    H H8 0.2168(6) -0.328(2) 0.0272(11) 0.048(5) Uiso . . 1.000
    H H9 0.2406(7) -0.139(2) 0.1527(11) 0.043(5) Uiso . . 1.000
    H H10 0.1809(6) 0.056(2) 0.2295(13) 0.054(5) Uiso . . 1.000
    H H11 0.0975(5) 0.053(2) 0.1780(10) 0.027(4) Uiso . . 1.000
loop_
    _atom_site_aniso_label
    _atom_site_aniso_U_11
    _atom_site_aniso_U_22
    _atom_site_aniso_U_33
    _atom_site_aniso_U_12
    _atom_site_aniso_U_13
    _atom_site_aniso_U_23
    C1 0.0248(10) 0.0196(9) 0.0148(8) 0.0000 0.0000 -0.0019(7)
    C2 0.0262(8) 0.0201(6) 0.0154(6) 0.0019(5) 0.0016(5) -0.0015(5)
    C3 0.0285(7) 0.0203(6) 0.0130(6) 0.0015(5) 0.0006(5) -0.0019(5)
    C4 0.0307(9) 0.0243(7) 0.0204(7) 0.0055(6) 0.0017(6) 0.0012(5)
    C5 0.0409(9) 0.0214(7) 0.0223(7) 0.0054(6) 0.0001(6) 0.0039(5)
    C6 0.0236(8) 0.0227(6) 0.0186(6) 0.0009(5) -0.0003(5) 0.0055(5)
    C7 0.0295(8) 0.0250(7) 0.0288(7) 0.0013(6) 0.0037(6) 0.0013(6)
    C8 0.0271(8) 0.0364(8) 0.0424(9) 0.0040(7) 0.0070(7) 0.0064(7)
    C9 0.0230(9) 0.0513(10) 0.0420(9) -0.0006(7) -0.0062(7) 0.0133(8)
    C10 0.0374(10) 0.0486(10) 0.0278(8) -0.0049(8) -0.0092(7) 0.0002(7)
    C11 0.0320(9) 0.0340(8) 0.0211(7) 0.0030(7) 0.0000(6) -0.0012(6)
_geom_special_details
;
 Bond distances, angles etc. have been calculated using the
 rounded fractional coordinates. All su's are estimated
 from the variances of the (full) variance-covariance matrix.
 The cell esds are taken into account in the estimation of
 distances, angles and torsion angles
;
loop_
    _geom_bond_atom_site_label_1
    _geom_bond_atom_site_label_2
    _geom_bond_site_symmetry_1
    _geom_bond_site_symmetry_2
    _geom_bond_distance
    _geom_bond_publ_flag
    C1 C2 . . 1.4294(15) no
    C1 C2 . 3_555 1.4294(15) no
    C1 C1 . 5_555 1.458(3) no
    C2 C3 . . 1.4047(18) no
    C2 C6 . . 1.4978(19) no
    C3 C4 . . 1.4407(19) no
    C3 C3 . 7_555 1.4342(19) no
    C4 C5 . . 1.358(2) no
    C5 C5 . 7_555 1.407(2) no
    C6 C7 . . 1.3923(19) no
    C6 C11 . . 1.3965(19) no
    C7 C8 . . 1.381(2) no
    C8 C9 . . 1.384(2) no
    C9 C10 . . 1.380(2) no
    C10 C11 . . 1.381(2) no
    C4 H4 . . 0.986(16) no
    C5 H5 . . 0.969(14) no
    C7 H7 . . 0.978(15) no
    C8 H8 . . 1.000(16) no
    C9 H9 . . 0.961(19) no
    C10 H10 . . 0.972(17) no
    C11 H11 . . 0.976(14) no
loop_
    _geom_contact_atom_site_label_1
    _geom_contact_atom_site_label_2
    _geom_contact_distance
    _geom_contact_site_symmetry_1
    _geom_contact_site_symmetry_2
    _geom_contact_publ_flag
    C2 C11 3.5876(19) . 3_555 no
    C4 C7 3.200(2) . . no
    C4 C11 3.588(2) . . no
    C6 C6 2.8323(19) . 3_555 no
    C6 C11 3.3736(19) . 3_555 no
    C6 C7 3.239(2) . 3_555 no
    C7 C4 3.200(2) . . no
    C7 C6 3.239(2) . 3_555 no
    C7 C11 3.233(2) . 3_555 no
    C8 C8 3.574(2) . 13_545 no
    C11 C2 3.5876(19) . 3_555 no
    C11 C4 3.588(2) . . no
    C11 C6 3.3736(19) . 3_555 no
    C11 C7 3.233(2) . 3_555 no
    C3 H5 3.086(14) . 6_555 no
    C4 H5 2.959(14) . 6_555 no
    C4 H11 2.956(14) . 6_545 no
    C5 H11 3.016(14) . 6_545 no
    C6 H4 2.472(14) . . no
    C7 H4 2.545(15) . . no
    C7 H7 3.097(14) . 3_545 no
    C8 H8 2.812(16) . 13_545 no
    C9 H10 3.019(16) . 6_545 no
    C11 H7 3.073(15) . 3_555 no
    H4 C6 2.472(14) . . no
    H4 C7 2.545(15) . . no
    H4 H7 2.58(2) . 3_545 no
    H5 H11 2.39(2) . 1_545 no
    H5 C3 3.086(14) . 6_545 no
    H5 C4 2.959(14) . 6_545 no
    H7 C7 3.097(14) . 3_545 no
    H7 C11 3.073(15) . 3_555 no
    H7 H4 2.58(2) . 3_545 no
    H8 H8 2.59(2) . 3_545 no
    H8 C8 2.812(16) . 13_545 no
    H8 H8 2.24(2) . 13_545 no
    H10 C9 3.019(16) . 6_555 no
    H11 H5 2.39(2) . 1_565 no
    H11 C4 2.956(14) . 6_555 no
    H11 C5 3.016(14) . 6_555 no
loop_
    _geom_angle_atom_site_label_1
    _geom_angle_atom_site_label_2
    _geom_angle_atom_site_label_3
    _geom_angle_site_symmetry_1
    _geom_angle_site_symmetry_2
    _geom_angle_site_symmetry_3
    _geom_angle
    _geom_angle_publ_flag
    C2 C1 C2 . . 3_555 121.95(15) no
    C1 C1 C2 5_555 . . 119.02(8) no
    C1 C1 C2 5_555 . 3_555 119.02(8) no
    C1 C2 C3 . . . 120.43(13) no
    C1 C2 C6 . . . 123.22(12) no
    C3 C2 C6 . . . 115.95(11) no
    C2 C3 C4 . . . 121.80(12) no
    C2 C3 C3 . . 7_555 120.15(11) no
    C3 C3 C4 7_555 . . 117.90(12) no
    C3 C4 C5 . . . 121.66(14) no
    C4 C5 C5 . . 7_555 120.42(13) no
    C2 C6 C7 . . . 122.40(12) no
    C2 C6 C11 . . . 119.29(12) no
    C7 C6 C11 . . . 117.93(13) no
    C6 C7 C8 . . . 120.92(13) no
    C7 C8 C9 . . . 120.22(14) no
    C8 C9 C10 . . . 119.78(15) no
    C9 C10 C11 . . . 119.93(14) no
    C6 C11 C10 . . . 121.22(14) no
    C3 C4 H4 . . . 118.8(8) no
    C5 C4 H4 . . . 119.6(8) no
    C4 C5 H5 . . . 119.5(8) no
    C5 C5 H5 7_555 . . 120.0(8) no
    C6 C7 H7 . . . 119.6(9) no
    C8 C7 H7 . . . 119.5(9) no
    C7 C8 H8 . . . 120.0(9) no
    C9 C8 H8 . . . 119.7(9) no
    C8 C9 H9 . . . 118.6(9) no
    C10 C9 H9 . . . 121.6(9) no
    C9 C10 H10 . . . 121.7(9) no
    C11 C10 H10 . . . 118.4(9) no
    C6 C11 H11 . . . 117.1(8) no
    C10 C11 H11 . . . 121.7(8) no
loop_
    _geom_torsion_atom_site_label_1
    _geom_torsion_atom_site_label_2
    _geom_torsion_atom_site_label_3
    _geom_torsion_atom_site_label_4
    _geom_torsion_site_symmetry_1
    _geom_torsion_site_symmetry_2
    _geom_torsion_site_symmetry_3
    _geom_torsion_site_symmetry_4
    _geom_torsion
    _geom_torsion_publ_flag
    C2 C1 C2 C3 3_555 . . . -172.78(10) no
    C2 C1 C2 C6 3_555 . . . 14.78(14) no
    C1 C1 C2 C3 5_555 . . . 7.22(12) no
    C1 C1 C2 C6 5_555 . . . -165.22(8) no
    C1 C2 C3 C4 . . . . 177.23(10) no
    C1 C2 C3 C3 . . . 7_555 -7.30(16) no
    C6 C2 C3 C4 . . . . -9.80(17) no
    C6 C2 C3 C3 . . . 7_555 165.67(11) no
    C1 C2 C6 C7 . . . . -109.75(14) no
    C1 C2 C6 C11 . . . . 77.54(15) no
    C3 C2 C6 C7 . . . . 77.51(16) no
    C3 C2 C6 C11 . . . . -95.21(15) no
    C2 C3 C4 C5 . . . . 176.85(12) no
    C3 C3 C4 C5 7_555 . . . 1.28(18) no
    C2 C3 C3 C2 . . 7_555 7_555 0.02(18) no
    C2 C3 C3 C4 . . 7_555 7_555 -175.64(11) no
    C4 C3 C3 C2 . . 7_555 7_555 175.64(11) no
    C4 C3 C3 C4 . . 7_555 7_555 0.02(18) no
    C3 C4 C5 C5 . . . 7_555 -1.3(2) no
    C4 C5 C5 C4 . . 7_555 7_555 0.0(2) no
    C2 C6 C7 C8 . . . . -172.50(13) no
    C11 C6 C7 C8 . . . . 0.3(2) no
    C2 C6 C11 C10 . . . . 173.46(13) no
    C7 C6 C11 C10 . . . . 0.4(2) no
    C6 C7 C8 C9 . . . . -0.8(2) no
    C7 C8 C9 C10 . . . . 0.5(2) no
    C8 C9 C10 C11 . . . . 0.2(2) no
    C9 C10 C11 C6 . . . . -0.7(2) no
data_200K
_chemical_name_systematic
; ?
;
_chemical_name_common     ?
_chemical_formula_moiety     'C42 H28'
_chemical_formula_sum     'C42 H28'
_chemical_formula_structural     ?
_chemical_formula_iupac     ?
_chemical_formula_weight     532.68
_chemical_melting_point     ?
_symmetry_cell_setting     Orthorhombic
_symmetry_space_group_name_H-M     'C m c a'
_symmetry_space_group_name_Hall     '-C 2bc 2'
loop_
    _symmetry_equiv_pos_site_id
    _symmetry_equiv_pos_as_xyz
    1 x,y,z
    2 -x,1/2-y,1/2+z
    3 x,-y,-z
    4 -x,1/2+y,1/2-z
    5 -x,-y,-z
    6 x,1/2+y,1/2-z
    7 -x,y,z
    8 x,1/2-y,1/2+z
    9 1/2+x,1/2+y,z
    10 1/2-x,-y,1/2+z
    11 1/2+x,1/2-y,-z
    12 1/2-x,y,1/2-z
    13 1/2-x,1/2-y,-z
    14 1/2+x,y,1/2-z
    15 1/2-x,1/2+y,z
    16 1/2+x,-y,1/2+z
_cell_length_a     26.838(4)
_cell_length_b     7.1810(10)
_cell_length_c     14.332(2)
_cell_angle_alpha     90
_cell_angle_beta     90
_cell_angle_gamma     90
_cell_volume     2762.1(7)
_cell_formula_units_Z     4
_cell_measurement_reflns_used     4251
_cell_measurement_theta_min     2.84
_cell_measurement_theta_max     27.42
_cell_measurement_temperature     200.0(10)
_cell_special_details
;
 The final unit cell was obtained from the xyz centroids of
   4251 reflections after integration using the SAINT software
   package (Bruker, 2000).
;
_exptl_crystal_description     'platelet'
_exptl_crystal_colour     'orange'
_exptl_crystal_size_max     0.51
_exptl_crystal_size_mid     0.45
_exptl_crystal_size_min     0.03
_exptl_crystal_size_rad     ?
_exptl_crystal_density_diffrn     1.281
_exptl_crystal_density_meas     ?
_exptl_crystal_density_method     'not measured'
_exptl_crystal_F_000     1120
_exptl_absorpt_coefficient_mu     0.072
_exptl_absorpt_correction_type     'Multi-Scan'
_exptl_absorpt_process_details     '(SADABS, Sheldrick, Bruker, 2000))'
_exptl_absorpt_correction_T_min     0.9561
_exptl_absorpt_correction_T_max     0.9957
_exptl_special_details
; ?
;
_diffrn_ambient_temperature     200.0(10)
_diffrn_radiation_type     'MoK\a'
_diffrn_radiation_wavelength     0.71073
_diffrn_radiation_source     'fine focus sealed Siemens Mo tube '
_diffrn_radiation_monochromator     'parallel mounted graphite'
_diffrn_measurement_device_type
;
  Bruker Smart Apex; CCD area detector
;
_diffrn_measurement_method     'phi and omega scans'
_diffrn_detector_area_resol_mean     '4096x4096 / 62x62 (binned 512)'
_diffrn_reflns_number     10162
_diffrn_reflns_av_R_equivalents     0.0452
_diffrn_reflns_av_sigmaI/netI     0.0317
_diffrn_reflns_theta_min     3.22
_diffrn_reflns_theta_max     26.37
_diffrn_reflns_theta_full     25.00
_diffrn_measured_fraction_theta_max     0.998
_diffrn_measured_fraction_theta_full     0.998
_diffrn_reflns_limit_h_min     -33
_diffrn_reflns_limit_h_max     28
_diffrn_reflns_limit_k_min     -8
_diffrn_reflns_limit_k_max     8
_diffrn_reflns_limit_l_min     -17
_diffrn_reflns_limit_l_max     17
_diffrn_reflns_reduction_process
;
 Intensity data were corrected for Lorentz and polarization
  effects, decay and absorption and reduced to F~o~^2^
  using SAINT (Bruker, 2000) and SADABS (Sheldrick, 2001)
;
_diffrn_standards_number     0
_diffrn_standards_interval_count     ?
_diffrn_standards_interval_time     ?
_diffrn_standards_decay_%     0
loop_
    _diffrn_standard_refln_index_h
    _diffrn_standard_refln_index_k
    _diffrn_standard_refln_index_l
    ? ? ?
_refine_special_details
;
 Refinement of F^2^ against ALL reflections.  The weighted R-factor wR and
 goodness of fit S are based on F^2^, conventional R-factors R are based
 on F, with F set to zero for negative F^2^. The threshold expression of
 F^2^ > 2sigma(F^2^) is used only for calculating R-factors(gt) etc. and is
 not relevant to the choice of reflections for refinement.  R-factors based
 on F^2^ are statistically about twice as large as those based on F, and R-
 factors based on ALL data will be even larger.
;
_reflns_number_total     1437
_reflns_number_gt     1075
_reflns_threshold_expression     I>2\s(I)
_refine_ls_structure_factor_coef     Fsqd
_refine_ls_matrix_type     full
_refine_ls_R_factor_all     0.0628
_refine_ls_R_factor_gt     0.0407
_refine_ls_wR_factor_gt     0.1001
_refine_ls_wR_factor_ref     0.1127
_refine_ls_goodness_of_fit_ref     1.028
_refine_ls_restrained_S_all     1.028
_refine_ls_number_reflns     1437
_refine_ls_number_parameters     124
_refine_ls_number_restraints     0
_refine_ls_number_constraints     ?
_refine_ls_hydrogen_treatment     refall
_refine_ls_weighting_scheme     calc
_refine_ls_weighting_details
;calc w=1/[\s^2^(Fo^2^)+(0.0595P)^2^+1.3599P]
 where P=(Fo^2^+2Fc^2^)/3
;
_atom_sites_solution_hydrogens     geom
_atom_sites_solution_primary     direct
_atom_sites_solution_secondary     direct
_refine_ls_shift/su_max     0.000
_refine_ls_shift/su_mean     0.000
_refine_diff_density_max     0.225
_refine_diff_density_min     -0.178
_refine_ls_extinction_method     none
_refine_ls_extinction_coef     ?
_refine_ls_abs_structure_details     ?
_refine_ls_abs_structure_Flack     ?
loop_
    _atom_type_symbol
    _atom_type_description
    _atom_type_scat_dispersion_real
    _atom_type_scat_dispersion_imag
    _atom_type_scat_source
    H H 0.0000 0.0000 'International Tables Vol C Tables 4.2.6.8 and 6.1.1.4'
    C C 0.0033 0.0016 'International Tables Vol C Tables 4.2.6.8 and 6.1.1.4'
_computing_data_collection     'SMART, Bruker Version 5.624, 2001'
_computing_cell_refinement     'SAINT, Bruker Version 6.02A, 2000'
_computing_data_reduction     'XPREP, Bruker Version 5.1/NT, 2000'
_computing_structure_solution
;
 SIR-97 (Altomare et al., 1999)
;
_computing_structure_refinement     'SHELXL-97 (Sheldrick, 1997)'
_computing_molecular_graphics
;
 PLUTO (Meetsma, 2004)
 PLATON (Spek, 2003)
;
_computing_publication_material     'PLATON (Spek, 2003)'
loop_
    _atom_site_type_symbol
    _atom_site_label
    _atom_site_fract_x
    _atom_site_fract_y
    _atom_site_fract_z
    _atom_site_U_iso_or_equiv
    _atom_site_thermal_displace_type
    _atom_site_calc_flag
    _atom_site_refinement_flags
    _atom_site_occupancy
    C C1 0.02718(7) 0.00000 0.00000 0.0215(6) Uani . . 1.000
    C C2 0.05301(5) -0.14396(19) 0.04907(9) 0.0221(4) Uani . . 1.000
    C C3 0.02666(5) -0.29437(19) 0.08762(9) 0.0224(4) Uani . . 1.000
    C C4 0.05171(6) -0.4456(2) 0.13397(10) 0.0275(5) Uani . . 1.000
    C C5 0.02627(6) -0.5864(2) 0.17497(10) 0.0315(5) Uani . . 1.000
    C C6 0.10730(5) -0.13351(19) 0.07261(9) 0.0236(4) Uani . . 1.000
    C C7 0.14271(6) -0.2461(2) 0.02964(11) 0.0310(5) Uani . . 1.000
    C C8 0.19149(6) -0.2484(3) 0.06023(13) 0.0401(6) Uani . . 1.000
    C C9 0.20606(7) -0.1373(3) 0.13390(13) 0.0442(6) Uani . . 1.000
    C C10 0.17164(7) -0.0244(3) 0.17747(12) 0.0430(6) Uani . . 1.000
    C C11 0.12264(6) -0.0233(2) 0.14730(10) 0.0320(5) Uani . . 1.000
    H H4 0.0880(7) -0.443(2) 0.1341(12) 0.034(5) Uiso . . 1.000
    H H5 0.0447(6) -0.686(2) 0.2055(12) 0.038(5) Uiso . . 1.000
    H H7 0.1325(6) -0.324(2) -0.0239(11) 0.032(4) Uiso . . 1.000
    H H8 0.2169(7) -0.328(3) 0.0280(13) 0.055(6) Uiso . . 1.000
    H H9 0.2407(8) -0.139(2) 0.1536(12) 0.053(5) Uiso . . 1.000
    H H10 0.1809(8) 0.057(3) 0.2298(16) 0.068(6) Uiso . . 1.000
    H H11 0.0971(6) 0.052(2) 0.1789(12) 0.035(4) Uiso . . 1.000
loop_
    _atom_site_aniso_label
    _atom_site_aniso_U_11
    _atom_site_aniso_U_22
    _atom_site_aniso_U_33
    _atom_site_aniso_U_12
    _atom_site_aniso_U_13
    _atom_site_aniso_U_23
    C1 0.0261(11) 0.0214(10) 0.0169(9) 0.0000 0.0000 -0.0021(7)
    C2 0.0268(8) 0.0222(7) 0.0172(7) 0.0029(6) 0.0017(5) -0.0014(5)
    C3 0.0304(8) 0.0223(7) 0.0146(6) 0.0020(6) 0.0007(5) -0.0020(5)
    C4 0.0325(10) 0.0262(7) 0.0239(7) 0.0053(6) 0.0022(7) 0.0025(6)
    C5 0.0441(9) 0.0243(7) 0.0260(8) 0.0064(7) 0.0008(7) 0.0052(6)
    C6 0.0258(8) 0.0243(7) 0.0208(7) 0.0012(6) 0.0002(6) 0.0065(5)
    C7 0.0312(9) 0.0285(8) 0.0333(8) 0.0015(7) 0.0049(7) 0.0011(7)
    C8 0.0286(9) 0.0419(10) 0.0499(11) 0.0046(8) 0.0079(8) 0.0082(8)
    C9 0.0256(10) 0.0589(12) 0.0482(11) -0.0010(9) -0.0069(8) 0.0147(9)
    C10 0.0415(11) 0.0562(11) 0.0312(9) -0.0063(9) -0.0103(8) 0.0009(8)
    C11 0.0335(9) 0.0384(9) 0.0241(7) 0.0026(7) -0.0002(7) -0.0013(7)
_geom_special_details
;
 Bond distances, angles etc. have been calculated using the
 rounded fractional coordinates. All su's are estimated
 from the variances of the (full) variance-covariance matrix.
 The cell esds are taken into account in the estimation of
 distances, angles and torsion angles
;
loop_
    _geom_bond_atom_site_label_1
    _geom_bond_atom_site_label_2
    _geom_bond_site_symmetry_1
    _geom_bond_site_symmetry_2
    _geom_bond_distance
    _geom_bond_publ_flag
    C1 C2 . . 1.4296(16) no
    C1 C2 . 3_555 1.4296(16) no
    C1 C1 . 5_555 1.459(3) no
    C2 C3 . . 1.4043(19) no
    C2 C6 . . 1.4975(19) no
    C3 C4 . . 1.440(2) no
    C3 C3 . 7_555 1.4310(19) no
    C4 C5 . . 1.354(2) no
    C5 C5 . 7_555 1.410(2) no
    C6 C7 . . 1.391(2) no
    C6 C11 . . 1.394(2) no
    C7 C8 . . 1.381(2) no
    C8 C9 . . 1.380(3) no
    C9 C10 . . 1.379(3) no
    C10 C11 . . 1.384(2) no
    C4 H4 . . 0.974(19) no
    C5 H5 . . 0.974(16) no
    C7 H7 . . 0.988(15) no
    C8 H8 . . 1.00(2) no
    C9 H9 . . 0.97(2) no
    C10 H10 . . 0.98(2) no
    C11 H11 . . 0.984(16) no
loop_
    _geom_contact_atom_site_label_1
    _geom_contact_atom_site_label_2
    _geom_contact_distance
    _geom_contact_site_symmetry_1
    _geom_contact_site_symmetry_2
    _geom_contact_publ_flag
    C2 C11 3.586(2) . 3_555 no
    C4 C7 3.202(2) . . no
    C4 C11 3.586(2) . . no
    C6 C11 3.372(2) . 3_555 no
    C6 C6 2.8299(19) . 3_555 no
    C6 C7 3.238(2) . 3_555 no
    C7 C4 3.202(2) . . no
    C7 C6 3.238(2) . 3_555 no
    C7 C11 3.235(2) . 3_555 no
    C8 C8 3.584(2) . 13_545 no
    C11 C6 3.372(2) . 3_555 no
    C11 C2 3.586(2) . 3_555 no
    C11 C7 3.235(2) . 3_555 no
    C11 C4 3.586(2) . . no
    C4 H11 2.946(17) . 6_545 no
    C4 H5 2.967(16) . 6_555 no
    C5 H11 2.998(17) . 6_545 no
    C6 H4 2.446(15) . . no
    C7 H4 2.529(17) . . no
    C8 H8 2.819(19) . 13_545 no
    C9 H10 3.02(2) . 6_545 no
    C11 H7 3.069(15) . 3_555 no
    H4 C6 2.446(15) . . no
    H4 C7 2.529(17) . . no
    H4 H7 2.59(2) . 3_545 no
    H5 H11 2.38(2) . 1_545 no
    H5 C4 2.967(16) . 6_545 no
    H7 C11 3.069(15) . 3_555 no
    H7 H4 2.59(2) . 3_545 no
    H8 H8 2.60(3) . 3_545 no
    H8 C8 2.819(19) . 13_545 no
    H8 H8 2.25(3) . 13_545 no
    H10 C9 3.02(2) . 6_555 no
    H11 H5 2.38(2) . 1_565 no
    H11 C4 2.946(17) . 6_555 no
    H11 C5 2.998(17) . 6_555 no
loop_
    _geom_angle_atom_site_label_1
    _geom_angle_atom_site_label_2
    _geom_angle_atom_site_label_3
    _geom_angle_site_symmetry_1
    _geom_angle_site_symmetry_2
    _geom_angle_site_symmetry_3
    _geom_angle
    _geom_angle_publ_flag
    C2 C1 C2 . . 3_555 121.99(15) no
    C1 C1 C2 5_555 . . 119.01(9) no
    C1 C1 C2 5_555 . 3_555 119.01(9) no
    C1 C2 C3 . . . 120.37(13) no
    C1 C2 C6 . . . 123.12(12) no
    C3 C2 C6 . . . 116.10(12) no
    C2 C3 C4 . . . 121.77(13) no
    C2 C3 C3 . . 7_555 120.24(12) no
    C3 C3 C4 7_555 . . 117.84(12) no
    C3 C4 C5 . . . 121.87(14) no
    C4 C5 C5 . . 7_555 120.28(14) no
    C2 C6 C7 . . . 122.39(12) no
    C2 C6 C11 . . . 119.28(12) no
    C7 C6 C11 . . . 117.92(13) no
    C6 C7 C8 . . . 120.93(15) no
    C7 C8 C9 . . . 120.31(17) no
    C8 C9 C10 . . . 119.78(17) no
    C9 C10 C11 . . . 119.90(17) no
    C6 C11 C10 . . . 121.16(15) no
    C3 C4 H4 . . . 117.0(9) no
    C5 C4 H4 . . . 121.2(9) no
    C4 C5 H5 . . . 119.2(9) no
    C5 C5 H5 7_555 . . 120.5(9) no
    C6 C7 H7 . . . 118.9(9) no
    C8 C7 H7 . . . 120.2(9) no
    C7 C8 H8 . . . 120.4(11) no
    C9 C8 H8 . . . 119.3(11) no
    C8 C9 H9 . . . 119.1(10) no
    C10 C9 H9 . . . 121.1(10) no
    C9 C10 H10 . . . 121.7(13) no
    C11 C10 H10 . . . 118.4(13) no
    C6 C11 H11 . . . 117.4(10) no
    C10 C11 H11 . . . 121.4(10) no
loop_
    _geom_torsion_atom_site_label_1
    _geom_torsion_atom_site_label_2
    _geom_torsion_atom_site_label_3
    _geom_torsion_atom_site_label_4
    _geom_torsion_site_symmetry_1
    _geom_torsion_site_symmetry_2
    _geom_torsion_site_symmetry_3
    _geom_torsion_site_symmetry_4
    _geom_torsion
    _geom_torsion_publ_flag
    C2 C1 C2 C3 3_555 . . . -172.85(11) no
    C2 C1 C2 C6 3_555 . . . 14.84(15) no
    C1 C1 C2 C3 5_555 . . . 7.15(14) no
    C1 C1 C2 C6 5_555 . . . -165.16(9) no
    C1 C2 C3 C4 . . . . 177.30(11) no
    C1 C2 C3 C3 . . . 7_555 -7.23(18) no
    C6 C2 C3 C4 . . . . -9.87(19) no
    C6 C2 C3 C3 . . . 7_555 165.60(12) no
    C1 C2 C6 C7 . . . . -109.92(15) no
    C1 C2 C6 C11 . . . . 77.61(16) no
    C3 C2 C6 C7 . . . . 77.47(17) no
    C3 C2 C6 C11 . . . . -95.00(16) no
    C2 C3 C4 C5 . . . . 176.88(13) no
    C3 C3 C4 C5 7_555 . . . 1.3(2) no
    C2 C3 C3 C2 . . 7_555 7_555 0.00(19) no
    C2 C3 C3 C4 . . 7_555 7_555 -175.64(12) no
    C4 C3 C3 C2 . . 7_555 7_555 175.64(12) no
    C4 C3 C3 C4 . . 7_555 7_555 0.00(19) no
    C3 C4 C5 C5 . . . 7_555 -1.3(2) no
    C4 C5 C5 C4 . . 7_555 7_555 0.0(2) no
    C2 C6 C7 C8 . . . . -172.52(15) no
    C11 C6 C7 C8 . . . . 0.1(2) no
    C2 C6 C11 C10 . . . . 173.32(15) no
    C7 C6 C11 C10 . . . . 0.5(2) no
    C6 C7 C8 C9 . . . . -0.5(3) no
    C7 C8 C9 C10 . . . . 0.4(3) no
    C8 C9 C10 C11 . . . . 0.2(3) no
    C9 C10 C11 C6 . . . . -0.6(3) no
data_235K
_chemical_name_systematic
; ?
;
_chemical_name_common     ?
_chemical_formula_moiety     'C42 H28'
_chemical_formula_sum     'C42 H28'
_chemical_formula_structural     ?
_chemical_formula_iupac     ?
_chemical_formula_weight     532.68
_chemical_melting_point     ?
_symmetry_cell_setting     Orthorhombic
_symmetry_space_group_name_H-M     'C m c a'
_symmetry_space_group_name_Hall     '-C 2bc 2'
loop_
    _symmetry_equiv_pos_site_id
    _symmetry_equiv_pos_as_xyz
    1 x,y,z
    2 -x,1/2-y,1/2+z
    3 x,-y,-z
    4 -x,1/2+y,1/2-z
    5 -x,-y,-z
    6 x,1/2+y,1/2-z
    7 -x,y,z
    8 x,1/2-y,1/2+z
    9 1/2+x,1/2+y,z
    10 1/2-x,-y,1/2+z
    11 1/2+x,1/2-y,-z
    12 1/2-x,y,1/2-z
    13 1/2-x,1/2-y,-z
    14 1/2+x,y,1/2-z
    15 1/2-x,1/2+y,z
    16 1/2+x,-y,1/2+z
_cell_length_a     26.818(5)
_cell_length_b     7.1740(10)
_cell_length_c     14.348(3)
_cell_angle_alpha     90
_cell_angle_beta     90
_cell_angle_gamma     90
_cell_volume     2760.5(9)
_cell_formula_units_Z     4
_cell_measurement_reflns_used     3849
_cell_measurement_theta_min     2.84
_cell_measurement_theta_max     27.39
_cell_measurement_temperature     235.0(10)
_cell_special_details
;
 The final unit cell was obtained from the xyz centroids of
   3849 reflections after integration using the SAINT software
   package (Bruker, 2000).
;
_exptl_crystal_description     'platelet'
_exptl_crystal_colour     'orange'
_exptl_crystal_size_max     0.51
_exptl_crystal_size_mid     0.45
_exptl_crystal_size_min     0.03
_exptl_crystal_size_rad     ?
_exptl_crystal_density_diffrn     1.282
_exptl_crystal_density_meas     ?
_exptl_crystal_density_method     'not measured'
_exptl_crystal_F_000     1120
_exptl_absorpt_coefficient_mu     0.073
_exptl_absorpt_correction_type     'Multi-Scan'
_exptl_absorpt_process_details     '(SADABS, Sheldrick, Bruker, 2000))'
_exptl_absorpt_correction_T_min     0.952
_exptl_absorpt_correction_T_max     0.992
_exptl_special_details
; ?
;
_diffrn_ambient_temperature     235.0(10)
_diffrn_radiation_type     'MoK\a'
_diffrn_radiation_wavelength     0.71073
_diffrn_radiation_source     'fine focus sealed Siemens Mo tube '
_diffrn_radiation_monochromator     'parallel mounted graphite'
_diffrn_measurement_device_type
;
  Bruker Smart Apex; CCD area detector
;
_diffrn_measurement_method     'phi and omega scans'
_diffrn_detector_area_resol_mean     '4096x4096 / 62x62 (binned 512)'
_diffrn_reflns_number     10021
_diffrn_reflns_av_R_equivalents     0.0517
_diffrn_reflns_av_sigmaI/netI     0.0360
_diffrn_reflns_theta_min     3.04
_diffrn_reflns_theta_max     26.37
_diffrn_reflns_theta_full     25.00
_diffrn_measured_fraction_theta_max     0.998
_diffrn_measured_fraction_theta_full     0.998
_diffrn_reflns_limit_h_min     -33
_diffrn_reflns_limit_h_max     33
_diffrn_reflns_limit_k_min     -8
_diffrn_reflns_limit_k_max     8
_diffrn_reflns_limit_l_min     -16
_diffrn_reflns_limit_l_max     17
_diffrn_reflns_reduction_process
;
 Intensity data were corrected for Lorentz and polarization
  effects, decay and absorption and reduced to F~o~^2^
  using SAINT (Bruker, 2000) and SADABS (Sheldrick, 2001)
;
_diffrn_standards_number     0
_diffrn_standards_interval_count     ?
_diffrn_standards_interval_time     ?
_diffrn_standards_decay_%     0
loop_
    _diffrn_standard_refln_index_h
    _diffrn_standard_refln_index_k
    _diffrn_standard_refln_index_l
    ? ? ?
_refine_special_details
;
 Refinement of F^2^ against ALL reflections.  The weighted R-factor wR and
 goodness of fit S are based on F^2^, conventional R-factors R are based
 on F, with F set to zero for negative F^2^. The threshold expression of
 F^2^ > 2sigma(F^2^) is used only for calculating R-factors(gt) etc. and is
 not relevant to the choice of reflections for refinement.  R-factors based
 on F^2^ are statistically about twice as large as those based on F, and R-
 factors based on ALL data will be even larger.
;
_reflns_number_total     1437
_reflns_number_gt     997
_reflns_threshold_expression     I>2\s(I)
_refine_ls_structure_factor_coef     Fsqd
_refine_ls_matrix_type     full
_refine_ls_R_factor_all     0.0708
_refine_ls_R_factor_gt     0.0405
_refine_ls_wR_factor_gt     0.0931
_refine_ls_wR_factor_ref     0.1092
_refine_ls_goodness_of_fit_ref     1.034
_refine_ls_restrained_S_all     1.034
_refine_ls_number_reflns     1437
_refine_ls_number_parameters     124
_refine_ls_number_restraints     0
_refine_ls_number_constraints     ?
_refine_ls_hydrogen_treatment     refall
_refine_ls_weighting_scheme     calc
_refine_ls_weighting_details
;calc w=1/[\s^2^(Fo^2^)+(0.0433P)^2^+2.1676P]
 where P=(Fo^2^+2Fc^2^)/3
;
_atom_sites_solution_hydrogens     difmap
_atom_sites_solution_primary     direct
_atom_sites_solution_secondary     direct
_refine_ls_shift/su_max     0.000
_refine_ls_shift/su_mean     0.000
_refine_diff_density_max     0.236
_refine_diff_density_min     -0.186
_refine_ls_extinction_method     none
_refine_ls_extinction_coef     ?
_refine_ls_abs_structure_details     ?
_refine_ls_abs_structure_Flack     ?
loop_
    _atom_type_symbol
    _atom_type_description
    _atom_type_scat_dispersion_real
    _atom_type_scat_dispersion_imag
    _atom_type_scat_source
    H H 0.0000 0.0000 'International Tables Vol C Tables 4.2.6.8 and 6.1.1.4'
    C C 0.0033 0.0016 'International Tables Vol C Tables 4.2.6.8 and 6.1.1.4'
_computing_data_collection     'SMART, Bruker Version 5.624, 2001'
_computing_cell_refinement     'SAINT, Bruker Version 6.02A, 2000'
_computing_data_reduction     'XPREP, Bruker Version 5.1/NT, 2000'
_computing_structure_solution
;
 SIR-97 (Altomare et al., 1999)
;
_computing_structure_refinement     'SHELXL-97 (Sheldrick, 1997)'
_computing_molecular_graphics
;
 PLUTO (Meetsma, 2004)
 PLATON (Spek, 2003)
;
_computing_publication_material     'PLATON (Spek, 2003)'
loop_
    _atom_site_type_symbol
    _atom_site_label
    _atom_site_fract_x
    _atom_site_fract_y
    _atom_site_fract_z
    _atom_site_U_iso_or_equiv
    _atom_site_thermal_displace_type
    _atom_site_calc_flag
    _atom_site_refinement_flags
    _atom_site_occupancy
    C C1 0.02725(7) 0.00000 0.00000 0.0237(7) Uani . . 1.000
    C C2 0.05282(5) -0.1437(2) 0.04905(11) 0.0246(5) Uani . . 1.000
    C C3 0.02673(5) -0.2940(2) 0.08752(10) 0.0247(5) Uani . . 1.000
    C C4 0.05163(6) -0.4448(2) 0.13381(12) 0.0311(5) Uani . . 1.000
    C C5 0.02624(7) -0.5852(2) 0.17462(12) 0.0355(6) Uani . . 1.000
    C C6 0.10725(6) -0.1332(2) 0.07259(11) 0.0265(5) Uani . . 1.000
    C C7 0.14260(6) -0.2455(3) 0.02974(13) 0.0342(6) Uani . . 1.000
    C C8 0.19131(6) -0.2471(3) 0.06057(15) 0.0459(7) Uani . . 1.000
    C C9 0.20583(7) -0.1364(3) 0.13366(15) 0.0505(7) Uani . . 1.000
    C C10 0.17143(7) -0.0242(3) 0.17699(14) 0.0497(7) Uani . . 1.000
    C C11 0.12234(7) -0.0230(3) 0.14690(12) 0.0364(6) Uani . . 1.000
    H H4 0.0880(6) -0.443(2) 0.1359(12) 0.033(5) Uiso . . 1.000
    H H5 0.0443(6) -0.682(3) 0.2055(12) 0.042(5) Uiso . . 1.000
    H H7 0.1326(6) -0.324(2) -0.0238(12) 0.032(5) Uiso . . 1.000
    H H8 0.2163(7) -0.325(3) 0.0277(13) 0.055(6) Uiso . . 1.000
    H H9 0.2410(8) -0.137(3) 0.1527(13) 0.060(6) Uiso . . 1.000
    H H10 0.1796(7) 0.052(3) 0.2290(15) 0.060(6) Uiso . . 1.000
    H H11 0.0971(7) 0.054(3) 0.1768(13) 0.041(5) Uiso . . 1.000
loop_
    _atom_site_aniso_label
    _atom_site_aniso_U_11
    _atom_site_aniso_U_22
    _atom_site_aniso_U_33
    _atom_site_aniso_U_12
    _atom_site_aniso_U_13
    _atom_site_aniso_U_23
    C1 0.0276(11) 0.0238(12) 0.0198(11) 0.0000 0.0000 -0.0019(9)
    C2 0.0285(8) 0.0245(8) 0.0207(8) 0.0034(7) 0.0011(6) -0.0014(7)
    C3 0.0322(8) 0.0234(8) 0.0185(8) 0.0016(7) 0.0015(6) -0.0018(6)
    C4 0.0349(9) 0.0286(9) 0.0297(9) 0.0060(7) 0.0020(7) 0.0032(8)
    C5 0.0483(10) 0.0258(9) 0.0323(10) 0.0064(8) 0.0013(8) 0.0070(8)
    C6 0.0278(8) 0.0276(9) 0.0241(8) 0.0013(7) -0.0002(6) 0.0059(7)
    C7 0.0319(9) 0.0312(10) 0.0395(11) 0.0022(8) 0.0055(8) 0.0008(8)
    C8 0.0302(9) 0.0481(12) 0.0595(14) 0.0061(9) 0.0090(9) 0.0093(11)
    C9 0.0276(10) 0.0661(14) 0.0579(14) -0.0019(10) -0.0065(9) 0.0168(12)
    C10 0.0466(11) 0.0660(15) 0.0364(11) -0.0077(11) -0.0132(9) 0.0001(11)
    C11 0.0367(9) 0.0429(11) 0.0296(9) 0.0027(8) -0.0011(8) -0.0012(8)
_geom_special_details
;
 Bond distances, angles etc. have been calculated using the
 rounded fractional coordinates. All su's are estimated
 from the variances of the (full) variance-covariance matrix.
 The cell esds are taken into account in the estimation of
 distances, angles and torsion angles
;
loop_
    _geom_bond_atom_site_label_1
    _geom_bond_atom_site_label_2
    _geom_bond_site_symmetry_1
    _geom_bond_site_symmetry_2
    _geom_bond_distance
    _geom_bond_publ_flag
    C1 C2 . . 1.4242(17) no
    C1 C2 . 3_555 1.4242(17) no
    C1 C1 . 5_555 1.462(3) no
    C2 C3 . . 1.399(2) no
    C2 C6 . . 1.500(2) no
    C3 C4 . . 1.434(2) no
    C3 C3 . 7_555 1.4337(19) no
    C4 C5 . . 1.349(2) no
    C5 C5 . 7_555 1.407(3) no
    C6 C7 . . 1.388(2) no
    C6 C11 . . 1.388(2) no
    C7 C8 . . 1.379(2) no
    C8 C9 . . 1.372(3) no
    C9 C10 . . 1.373(3) no
    C10 C11 . . 1.386(3) no
    C4 H4 . . 0.976(16) no
    C5 H5 . . 0.956(19) no
    C7 H7 . . 0.990(16) no
    C8 H8 . . 0.99(2) no
    C9 H9 . . 0.98(2) no
    C10 H10 . . 0.95(2) no
    C11 H11 . . 0.97(2) no
loop_
    _geom_contact_atom_site_label_1
    _geom_contact_atom_site_label_2
    _geom_contact_distance
    _geom_contact_site_symmetry_1
    _geom_contact_site_symmetry_2
    _geom_contact_publ_flag
    C2 C11 3.579(2) . 3_555 no
    C4 C7 3.198(2) . . no
    C4 C11 3.576(3) . . no
    C6 C11 3.367(2) . 3_555 no
    C6 C6 2.827(2) . 3_555 no
    C6 C7 3.230(3) . 3_555 no
    C7 C4 3.198(2) . . no
    C7 C6 3.230(3) . 3_555 no
    C7 C11 3.229(3) . 3_555 no
    C8 C8 3.596(3) . 13_545 no
    C11 C6 3.367(2) . 3_555 no
    C11 C2 3.579(2) . 3_555 no
    C11 C7 3.229(3) . 3_555 no
    C11 C4 3.576(3) . . no
    C4 H11 2.978(19) . 6_545 no
    C4 H5 2.985(19) . 6_555 no
    C5 H11 3.025(19) . 6_545 no
    C6 H4 2.456(15) . . no
    C7 H4 2.544(16) . . no
    C8 H8 2.830(19) . 13_545 no
    C9 H10 3.06(2) . 6_545 no
    C11 H7 3.065(16) . 3_555 no
    H4 C6 2.456(15) . . no
    H4 C7 2.544(16) . . no
    H5 H11 2.40(3) . 1_545 no
    H5 C4 2.985(19) . 6_545 no
    H7 C11 3.065(16) . 3_555 no
    H8 C8 2.830(19) . 13_545 no
    H8 H8 2.25(3) . 13_545 no
    H10 C9 3.06(2) . 6_555 no
    H11 H5 2.40(3) . 1_565 no
    H11 C4 2.978(19) . 6_555 no
    H11 C5 3.025(19) . 6_555 no
loop_
    _geom_angle_atom_site_label_1
    _geom_angle_atom_site_label_2
    _geom_angle_atom_site_label_3
    _geom_angle_site_symmetry_1
    _geom_angle_site_symmetry_2
    _geom_angle_site_symmetry_3
    _geom_angle
    _geom_angle_publ_flag
    C2 C1 C2 . . 3_555 122.43(15) no
    C1 C1 C2 5_555 . . 118.78(9) no
    C1 C1 C2 5_555 . 3_555 118.78(9) no
    C1 C2 C3 . . . 120.80(13) no
    C1 C2 C6 . . . 122.92(13) no
    C3 C2 C6 . . . 115.88(13) no
    C2 C3 C4 . . . 122.09(13) no
    C2 C3 C3 . . 7_555 120.01(13) no
    C3 C3 C4 7_555 . . 117.75(13) no
    C3 C4 C5 . . . 121.94(15) no
    C4 C5 C5 . . 7_555 120.30(15) no
    C2 C6 C7 . . . 122.40(14) no
    C2 C6 C11 . . . 119.04(14) no
    C7 C6 C11 . . . 118.16(16) no
    C6 C7 C8 . . . 120.65(18) no
    C7 C8 C9 . . . 120.61(18) no
    C8 C9 C10 . . . 119.65(17) no
    C9 C10 C11 . . . 120.06(19) no
    C6 C11 C10 . . . 120.86(18) no
    C3 C4 H4 . . . 118.0(9) no
    C5 C4 H4 . . . 120.1(9) no
    C4 C5 H5 . . . 119.2(11) no
    C5 C5 H5 7_555 . . 120.5(10) no
    C6 C7 H7 . . . 119.3(9) no
    C8 C7 H7 . . . 120.1(9) no
    C7 C8 H8 . . . 119.5(11) no
    C9 C8 H8 . . . 119.9(11) no
    C8 C9 H9 . . . 118.9(12) no
    C10 C9 H9 . . . 121.5(12) no
    C9 C10 H10 . . . 122.5(12) no
    C11 C10 H10 . . . 117.4(12) no
    C6 C11 H11 . . . 117.3(11) no
    C10 C11 H11 . . . 121.8(11) no
loop_
    _geom_torsion_atom_site_label_1
    _geom_torsion_atom_site_label_2
    _geom_torsion_atom_site_label_3
    _geom_torsion_atom_site_label_4
    _geom_torsion_site_symmetry_1
    _geom_torsion_site_symmetry_2
    _geom_torsion_site_symmetry_3
    _geom_torsion_site_symmetry_4
    _geom_torsion
    _geom_torsion_publ_flag
    C2 C1 C2 C3 3_555 . . . -172.73(12) no
    C2 C1 C2 C6 3_555 . . . 14.79(18) no
    C1 C1 C2 C3 5_555 . . . 7.27(16) no
    C1 C1 C2 C6 5_555 . . . -165.21(11) no
    C1 C2 C3 C4 . . . . 177.28(13) no
    C1 C2 C3 C3 . . . 7_555 -7.4(2) no
    C6 C2 C3 C4 . . . . -9.7(2) no
    C6 C2 C3 C3 . . . 7_555 165.63(13) no
    C1 C2 C6 C7 . . . . -109.71(18) no
    C1 C2 C6 C11 . . . . 77.7(2) no
    C3 C2 C6 C7 . . . . 77.5(2) no
    C3 C2 C6 C11 . . . . -95.10(18) no
    C2 C3 C4 C5 . . . . 176.86(15) no
    C3 C3 C4 C5 7_555 . . . 1.4(2) no
    C2 C3 C3 C2 . . 7_555 7_555 0.0(2) no
    C2 C3 C3 C4 . . 7_555 7_555 -175.56(14) no
    C4 C3 C3 C2 . . 7_555 7_555 175.56(14) no
    C4 C3 C3 C4 . . 7_555 7_555 0.0(2) no
    C3 C4 C5 C5 . . . 7_555 -1.4(3) no
    C4 C5 C5 C4 . . 7_555 7_555 0.0(3) no
    C2 C6 C7 C8 . . . . -172.54(17) no
    C11 C6 C7 C8 . . . . 0.1(3) no
    C2 C6 C11 C10 . . . . 173.33(17) no
    C7 C6 C11 C10 . . . . 0.5(3) no
    C6 C7 C8 C9 . . . . -0.6(3) no
    C7 C8 C9 C10 . . . . 0.6(3) no
    C8 C9 C10 C11 . . . . 0.0(3) no
    C9 C10 C11 C6 . . . . -0.5(3) no
data_275K
_chemical_name_systematic
; ?
;
_chemical_name_common     ?
_chemical_formula_moiety     'C42 H28'
_chemical_formula_sum     'C42 H28'
_chemical_formula_structural     ?
_chemical_formula_iupac     ?
_chemical_formula_weight     532.68
_chemical_melting_point     ?
_symmetry_cell_setting     Orthorhombic
_symmetry_space_group_name_H-M     'C m c a'
_symmetry_space_group_name_Hall     '-C 2bc 2'
loop_
    _symmetry_equiv_pos_site_id
    _symmetry_equiv_pos_as_xyz
    1 x,y,z
    2 -x,1/2-y,1/2+z
    3 x,-y,-z
    4 -x,1/2+y,1/2-z
    5 -x,-y,-z
    6 x,1/2+y,1/2-z
    7 -x,y,z
    8 x,1/2-y,1/2+z
    9 1/2+x,1/2+y,z
    10 1/2-x,-y,1/2+z
    11 1/2+x,1/2-y,-z
    12 1/2-x,y,1/2-z
    13 1/2-x,1/2-y,-z
    14 1/2+x,y,1/2-z
    15 1/2-x,1/2+y,z
    16 1/2+x,-y,1/2+z
_cell_length_a     26.938(5)
_cell_length_b     7.2110(10)
_cell_length_c     14.461(3)
_cell_angle_alpha     90
_cell_angle_beta     90
_cell_angle_gamma     90
_cell_volume     2809.1(9)
_cell_formula_units_Z     4
_cell_measurement_reflns_used     3697
_cell_measurement_theta_min     2.82
_cell_measurement_theta_max     27.19
_cell_measurement_temperature     275.0(10)
_cell_special_details
;
 The final unit cell was obtained from the xyz centroids of
   3697 reflections after integration using the SAINT software
   package (Bruker, 2000).
;
_exptl_crystal_description     'platelet'
_exptl_crystal_colour     'orange'
_exptl_crystal_size_max     0.51
_exptl_crystal_size_mid     0.45
_exptl_crystal_size_min     0.03
_exptl_crystal_size_rad     ?
_exptl_crystal_density_diffrn     1.259
_exptl_crystal_density_meas     ?
_exptl_crystal_density_method     'not measured'
_exptl_crystal_F_000     1120
_exptl_absorpt_coefficient_mu     0.071
_exptl_absorpt_correction_type     'Multi-Scan'
_exptl_absorpt_process_details     '(SADABS, Sheldrick, Bruker, 2000))'
_exptl_absorpt_correction_T_min     0.9477
_exptl_absorpt_correction_T_max     0.9957
_exptl_special_details
; ?
;
_diffrn_ambient_temperature     275.0(10)
_diffrn_radiation_type     'MoK\a'
_diffrn_radiation_wavelength     0.71073
_diffrn_radiation_source     'fine focus sealed Siemens Mo tube '
_diffrn_radiation_monochromator     'parallel mounted graphite'
_diffrn_measurement_device_type
;
  Bruker Smart Apex; CCD area detector
;
_diffrn_measurement_method     'phi and omega scans'
_diffrn_detector_area_resol_mean     '4096x4096 / 62x62 (binned 512)'
_diffrn_reflns_number     10370
_diffrn_reflns_av_R_equivalents     0.0503
_diffrn_reflns_av_sigmaI/netI     0.0511
_diffrn_reflns_theta_min     3.20
_diffrn_reflns_theta_max     26.37
_diffrn_reflns_theta_full     25.00
_diffrn_measured_fraction_theta_max     0.998
_diffrn_measured_fraction_theta_full     0.998
_diffrn_reflns_limit_h_min     -33
_diffrn_reflns_limit_h_max     28
_diffrn_reflns_limit_k_min     -9
_diffrn_reflns_limit_k_max     9
_diffrn_reflns_limit_l_min     -18
_diffrn_reflns_limit_l_max     18
_diffrn_reflns_reduction_process
;
 Intensity data were corrected for Lorentz and polarization
  effects, decay and absorption and reduced to F~o~^2^
  using SAINT (Bruker, 2000) and SADABS (Sheldrick, 2001)
;
_diffrn_standards_number     0
_diffrn_standards_interval_count     ?
_diffrn_standards_interval_time     ?
_diffrn_standards_decay_%     0
loop_
    _diffrn_standard_refln_index_h
    _diffrn_standard_refln_index_k
    _diffrn_standard_refln_index_l
    ? ? ?
_refine_special_details
;
 Refinement of F^2^ against ALL reflections.  The weighted R-factor wR and
 goodness of fit S are based on F^2^, conventional R-factors R are based
 on F, with F set to zero for negative F^2^. The threshold expression of
 F^2^ > 2sigma(F^2^) is used only for calculating R-factors(gt) etc. and is
 not relevant to the choice of reflections for refinement.  R-factors based
 on F^2^ are statistically about twice as large as those based on F, and R-
 factors based on ALL data will be even larger.
;
_reflns_number_total     1466
_reflns_number_gt     1036
_reflns_threshold_expression     I>2\s(I)
_refine_ls_structure_factor_coef     Fsqd
_refine_ls_matrix_type     full
_refine_ls_R_factor_all     0.0675
_refine_ls_R_factor_gt     0.0419
_refine_ls_wR_factor_gt     0.1097
_refine_ls_wR_factor_ref     0.1248
_refine_ls_goodness_of_fit_ref     1.050
_refine_ls_restrained_S_all     1.050
_refine_ls_number_reflns     1466
_refine_ls_number_parameters     124
_refine_ls_number_restraints     0
_refine_ls_number_constraints     ?
_refine_ls_hydrogen_treatment     refall
_refine_ls_weighting_scheme     calc
_refine_ls_weighting_details
;calc w=1/[\s^2^(Fo^2^)+(0.0656P)^2^+0.4032P]
 where P=(Fo^2^+2Fc^2^)/3
;
_atom_sites_solution_hydrogens     geom
_atom_sites_solution_primary     direct
_atom_sites_solution_secondary     direct
_refine_ls_shift/su_max     0.000
_refine_ls_shift/su_mean     0.000
_refine_diff_density_max     0.174
_refine_diff_density_min     -0.156
_refine_ls_extinction_method     none
_refine_ls_extinction_coef     ?
_refine_ls_abs_structure_details     ?
_refine_ls_abs_structure_Flack     ?
loop_
    _atom_type_symbol
    _atom_type_description
    _atom_type_scat_dispersion_real
    _atom_type_scat_dispersion_imag
    _atom_type_scat_source
    H H 0.0000 0.0000 'International Tables Vol C Tables 4.2.6.8 and 6.1.1.4'
    C C 0.0033 0.0016 'International Tables Vol C Tables 4.2.6.8 and 6.1.1.4'
_computing_data_collection     'SMART, Bruker Version 5.624, 2001'
_computing_cell_refinement     'SAINT, Bruker Version 6.02A, 2000'
_computing_data_reduction     'XPREP, Bruker Version 5.1/NT, 2000'
_computing_structure_solution
;
 SIR-97 (Altomare et al., 1999)
;
_computing_structure_refinement     'SHELXL-97 (Sheldrick, 1997)'
_computing_molecular_graphics
;
 PLUTO (Meetsma, 2004)
 PLATON (Spek, 2003)
;
_computing_publication_material     'PLATON (Spek, 2003)'
loop_
    _atom_site_type_symbol
    _atom_site_label
    _atom_site_fract_x
    _atom_site_fract_y
    _atom_site_fract_z
    _atom_site_U_iso_or_equiv
    _atom_site_thermal_displace_type
    _atom_site_calc_flag
    _atom_site_refinement_flags
    _atom_site_occupancy
    C C1 0.02714(7) 0.00000 0.00000 0.0294(6) Uani . . 1.000
    C C2 0.05290(5) -0.14318(18) 0.04901(9) 0.0301(4) Uani . . 1.000
    C C3 0.02661(5) -0.29299(18) 0.08757(9) 0.0310(4) Uani . . 1.000
    C C4 0.05169(7) -0.4439(2) 0.13369(10) 0.0387(5) Uani . . 1.000
    C C5 0.02612(7) -0.5841(2) 0.17468(11) 0.0433(5) Uani . . 1.000
    C C6 0.10704(6) -0.13275(19) 0.07255(10) 0.0329(4) Uani . . 1.000
    C C7 0.14248(6) -0.2446(2) 0.03009(12) 0.0425(6) Uani . . 1.000
    C C8 0.19109(7) -0.2464(3) 0.06060(15) 0.0560(7) Uani . . 1.000
    C C9 0.20544(8) -0.1361(3) 0.13363(15) 0.0626(8) Uani . . 1.000
    C C10 0.17115(8) -0.0238(3) 0.17662(14) 0.0599(7) Uani . . 1.000
    C C11 0.12231(7) -0.0226(2) 0.14648(11) 0.0449(6) Uani . . 1.000
    H H4 0.0890(7) -0.441(2) 0.1366(12) 0.053(5) Uiso . . 1.000
    H H5 0.0450(6) -0.684(2) 0.2061(12) 0.053(5) Uiso . . 1.000
    H H7 0.1322(6) -0.324(2) -0.0219(12) 0.048(5) Uiso . . 1.000
    H H8 0.2160(7) -0.324(3) 0.0268(14) 0.078(6) Uiso . . 1.000
    H H9 0.2404(9) -0.138(3) 0.1536(15) 0.083(7) Uiso . . 1.000
    H H10 0.1794(8) 0.057(3) 0.2296(16) 0.085(7) Uiso . . 1.000
    H H11 0.0964(7) 0.050(2) 0.1780(13) 0.054(5) Uiso . . 1.000
loop_
    _atom_site_aniso_label
    _atom_site_aniso_U_11
    _atom_site_aniso_U_22
    _atom_site_aniso_U_33
    _atom_site_aniso_U_12
    _atom_site_aniso_U_13
    _atom_site_aniso_U_23
    C1 0.0327(11) 0.0304(10) 0.0251(9) 0.0000 0.0000 -0.0019(8)
    C2 0.0346(9) 0.0310(7) 0.0248(7) 0.0035(6) 0.0017(6) -0.0013(6)
    C3 0.0402(8) 0.0297(7) 0.0230(7) 0.0023(6) 0.0009(6) -0.0012(5)
    C4 0.0454(11) 0.0365(8) 0.0343(8) 0.0069(7) 0.0020(7) 0.0043(7)
    C5 0.0584(11) 0.0337(8) 0.0379(9) 0.0075(7) 0.0014(8) 0.0080(7)
    C6 0.0340(9) 0.0351(7) 0.0295(7) 0.0033(6) -0.0003(6) 0.0063(6)
    C7 0.0391(10) 0.0411(9) 0.0473(10) 0.0035(8) 0.0062(8) 0.0020(8)
    C8 0.0383(11) 0.0596(11) 0.0700(13) 0.0077(9) 0.0104(9) 0.0108(10)
    C9 0.0377(12) 0.0814(14) 0.0687(14) -0.0016(10) -0.0074(10) 0.0196(12)
    C10 0.0566(13) 0.0780(13) 0.0452(11) -0.0076(11) -0.0159(9) 0.0001(10)
    C11 0.0442(11) 0.0551(10) 0.0354(9) 0.0028(8) -0.0015(8) -0.0026(8)
_geom_special_details
;
 Bond distances, angles etc. have been calculated using the
 rounded fractional coordinates. All su's are estimated
 from the variances of the (full) variance-covariance matrix.
 The cell esds are taken into account in the estimation of
 distances, angles and torsion angles
;
loop_
    _geom_bond_atom_site_label_1
    _geom_bond_atom_site_label_2
    _geom_bond_site_symmetry_1
    _geom_bond_site_symmetry_2
    _geom_bond_distance
    _geom_bond_publ_flag
    C1 C2 . . 1.4317(16) no
    C1 C2 . 3_555 1.4317(16) no
    C1 C1 . 5_555 1.462(3) no
    C2 C3 . . 1.4069(19) no
    C2 C6 . . 1.500(2) no
    C3 C4 . . 1.444(2) no
    C3 C3 . 7_555 1.4336(19) no
    C4 C5 . . 1.359(2) no
    C5 C5 . 7_555 1.407(3) no
    C6 C7 . . 1.393(2) no
    C6 C11 . . 1.394(2) no
    C7 C8 . . 1.382(3) no
    C8 C9 . . 1.378(3) no
    C9 C10 . . 1.377(3) no
    C10 C11 . . 1.386(3) no
    C4 H4 . . 1.006(19) no
    C5 H5 . . 0.992(16) no
    C7 H7 . . 0.985(16) no
    C8 H8 . . 1.00(2) no
    C9 H9 . . 0.99(2) no
    C10 H10 . . 0.99(2) no
    C11 H11 . . 0.984(18) no
loop_
    _geom_contact_atom_site_label_1
    _geom_contact_atom_site_label_2
    _geom_contact_distance
    _geom_contact_site_symmetry_1
    _geom_contact_site_symmetry_2
    _geom_contact_publ_flag
    C2 C11 3.594(2) . 3_555 no
    C4 C7 3.208(2) . . no
    C4 C11 3.589(2) . . no
    C6 C11 3.385(2) . 3_555 no
    C6 C6 2.841(2) . 3_555 no
    C6 C7 3.243(2) . 3_555 no
    C7 C4 3.208(2) . . no
    C7 C6 3.243(2) . 3_555 no
    C7 C11 3.245(2) . 3_555 no
    C11 C7 3.245(2) . 3_555 no
    C11 C6 3.385(2) . 3_555 no
    C11 C2 3.594(2) . 3_555 no
    C11 C4 3.589(2) . . no
    C4 H11 2.978(19) . 6_545 no
    C4 H5 2.985(16) . 6_555 no
    C5 H11 3.010(19) . 6_545 no
    C6 H4 2.457(15) . . no
    C7 H4 2.540(17) . . no
    C8 H8 2.849(19) . 13_545 no
    C9 H10 3.05(2) . 6_545 no
    C11 H7 3.092(16) . 3_555 no
    H4 C6 2.457(15) . . no
    H4 C7 2.540(17) . . no
    H5 H11 2.40(2) . 1_545 no
    H5 C4 2.985(16) . 6_545 no
    H7 C11 3.092(16) . 3_555 no
    H8 C8 2.849(19) . 13_545 no
    H8 H8 2.26(3) . 13_545 no
    H10 C9 3.05(2) . 6_555 no
    H11 H5 2.40(2) . 1_565 no
    H11 C4 2.978(19) . 6_555 no
    H11 C5 3.010(19) . 6_555 no
loop_
    _geom_angle_atom_site_label_1
    _geom_angle_atom_site_label_2
    _geom_angle_atom_site_label_3
    _geom_angle_site_symmetry_1
    _geom_angle_site_symmetry_2
    _geom_angle_site_symmetry_3
    _geom_angle
    _geom_angle_publ_flag
    C2 C1 C2 . . 3_555 122.02(15) no
    C1 C1 C2 5_555 . . 118.99(8) no
    C1 C1 C2 5_555 . 3_555 118.99(8) no
    C1 C2 C3 . . . 120.39(13) no
    C1 C2 C6 . . . 123.20(12) no
    C3 C2 C6 . . . 115.98(12) no
    C2 C3 C4 . . . 121.75(13) no
    C2 C3 C3 . . 7_555 120.22(12) no
    C3 C3 C4 7_555 . . 117.89(13) no
    C3 C4 C5 . . . 121.65(16) no
    C4 C5 C5 . . 7_555 120.45(15) no
    C2 C6 C7 . . . 122.53(13) no
    C2 C6 C11 . . . 119.32(14) no
    C7 C6 C11 . . . 117.77(15) no
    C6 C7 C8 . . . 120.95(16) no
    C7 C8 C9 . . . 120.35(18) no
    C8 C9 C10 . . . 119.8(2) no
    C9 C10 C11 . . . 119.90(19) no
    C6 C11 C10 . . . 121.18(16) no
    C3 C4 H4 . . . 118.1(9) no
    C5 C4 H4 . . . 120.2(9) no
    C4 C5 H5 . . . 118.7(9) no
    C5 C5 H5 7_555 . . 120.8(9) no
    C6 C7 H7 . . . 118.7(9) no
    C8 C7 H7 . . . 120.3(9) no
    C7 C8 H8 . . . 119.0(11) no
    C9 C8 H8 . . . 120.6(11) no
    C8 C9 H9 . . . 119.0(13) no
    C10 C9 H9 . . . 121.1(13) no
    C9 C10 H10 . . . 123.1(13) no
    C11 C10 H10 . . . 117.0(13) no
    C6 C11 H11 . . . 116.7(11) no
    C10 C11 H11 . . . 122.1(11) no
loop_
    _geom_torsion_atom_site_label_1
    _geom_torsion_atom_site_label_2
    _geom_torsion_atom_site_label_3
    _geom_torsion_atom_site_label_4
    _geom_torsion_site_symmetry_1
    _geom_torsion_site_symmetry_2
    _geom_torsion_site_symmetry_3
    _geom_torsion_site_symmetry_4
    _geom_torsion
    _geom_torsion_publ_flag
    C2 C1 C2 C3 3_555 . . . -172.82(11) no
    C2 C1 C2 C6 3_555 . . . 14.93(15) no
    C1 C1 C2 C3 5_555 . . . 7.18(14) no
    C1 C1 C2 C6 5_555 . . . -165.07(9) no
    C1 C2 C3 C4 . . . . 177.10(11) no
    C1 C2 C3 C3 . . . 7_555 -7.27(18) no
    C6 C2 C3 C4 . . . . -10.11(19) no
    C6 C2 C3 C3 . . . 7_555 165.52(12) no
    C1 C2 C6 C7 . . . . -109.65(15) no
    C1 C2 C6 C11 . . . . 77.62(17) no
    C3 C2 C6 C7 . . . . 77.78(18) no
    C3 C2 C6 C11 . . . . -94.94(16) no
    C2 C3 C4 C5 . . . . 176.86(14) no
    C3 C3 C4 C5 7_555 . . . 1.1(2) no
    C2 C3 C3 C2 . . 7_555 7_555 0.00(19) no
    C2 C3 C3 C4 . . 7_555 7_555 -175.80(12) no
    C4 C3 C3 C2 . . 7_555 7_555 175.80(12) no
    C4 C3 C3 C4 . . 7_555 7_555 0.00(19) no
    C3 C4 C5 C5 . . . 7_555 -1.2(2) no
    C4 C5 C5 C4 . . 7_555 7_555 0.0(2) no
    C2 C6 C7 C8 . . . . -172.64(16) no
    C11 C6 C7 C8 . . . . 0.2(2) no
    C2 C6 C11 C10 . . . . 173.26(15) no
    C7 C6 C11 C10 . . . . 0.2(2) no
    C6 C7 C8 C9 . . . . -0.4(3) no
    C7 C8 C9 C10 . . . . 0.2(3) no
    C8 C9 C10 C11 . . . . 0.2(3) no
    C9 C10 C11 C6 . . . . -0.4(3) no
data_293K
_chemical_name_systematic
; ?
;
_chemical_name_common     ?
_chemical_formula_moiety     'C42 H28'
_chemical_formula_sum     'C42 H28'
_chemical_formula_structural     ?
_chemical_formula_iupac     ?
_chemical_formula_weight     532.68
_chemical_melting_point     ?
_symmetry_cell_setting     Orthorhombic
_symmetry_space_group_name_H-M     'C m c a'
_symmetry_space_group_name_Hall     '-C 2bc 2'
loop_
    _symmetry_equiv_pos_site_id
    _symmetry_equiv_pos_as_xyz
    1 x,y,z
    2 -x,1/2-y,1/2+z
    3 x,-y,-z
    4 -x,1/2+y,1/2-z
    5 -x,-y,-z
    6 x,1/2+y,1/2-z
    7 -x,y,z
    8 x,1/2-y,1/2+z
    9 1/2+x,1/2+y,z
    10 1/2-x,-y,1/2+z
    11 1/2+x,1/2-y,-z
    12 1/2-x,y,1/2-z
    13 1/2-x,1/2-y,-z
    14 1/2+x,y,1/2-z
    15 1/2-x,1/2+y,z
    16 1/2+x,-y,1/2+z
_cell_length_a     26.860(10)
_cell_length_b     7.193(3)
_cell_length_c     14.433(5)
_cell_angle_alpha     90
_cell_angle_beta     90
_cell_angle_gamma     90
_cell_volume     2788.5(18)
_cell_formula_units_Z     4
_cell_measurement_reflns_used     1924
_cell_measurement_theta_min     2.82
_cell_measurement_theta_max     23.37
_cell_measurement_temperature     293.0(10)
_cell_special_details
;
 The final unit cell was obtained from the xyz centroids of
   1924 reflections after integration using the SAINT software
   package (Bruker, 2000).
;
_exptl_crystal_description     'platelet'
_exptl_crystal_colour     'orange'
_exptl_crystal_size_max     0.51
_exptl_crystal_size_mid     0.45
_exptl_crystal_size_min     0.03
_exptl_crystal_size_rad     ?
_exptl_crystal_density_diffrn     1.269
_exptl_crystal_density_meas     ?
_exptl_crystal_density_method     'not measured'
_exptl_crystal_F_000     1120
_exptl_absorpt_coefficient_mu     0.072
_exptl_absorpt_correction_type     'Multi-Scan'
_exptl_absorpt_process_details     '(SADABS, Sheldrick, Bruker, 2000))'
_exptl_absorpt_correction_T_min     0.9491
_exptl_absorpt_correction_T_max     0.9978
_exptl_special_details
; ?
;
_diffrn_ambient_temperature     293.0(10)
_diffrn_radiation_type     'MoK\a'
_diffrn_radiation_wavelength     0.71073
_diffrn_radiation_source     'fine focus sealed Siemens Mo tube '
_diffrn_radiation_monochromator     'parallel mounted graphite'
_diffrn_measurement_device_type
;
  Bruker Smart Apex; CCD area detector
;
_diffrn_measurement_method     'phi and omega scans'
_diffrn_detector_area_resol_mean     '4096x4096 / 62x62 (binned 512)'
_diffrn_reflns_number     10259
_diffrn_reflns_av_R_equivalents     0.0614
_diffrn_reflns_av_sigmaI/netI     0.0395
_diffrn_reflns_theta_min     3.03
_diffrn_reflns_theta_max     26.36
_diffrn_reflns_theta_full     25.00
_diffrn_measured_fraction_theta_max     0.998
_diffrn_measured_fraction_theta_full     0.998
_diffrn_reflns_limit_h_min     -33
_diffrn_reflns_limit_h_max     33
_diffrn_reflns_limit_k_min     -8
_diffrn_reflns_limit_k_max     8
_diffrn_reflns_limit_l_min     -18
_diffrn_reflns_limit_l_max     18
_diffrn_reflns_reduction_process
;
 Intensity data were corrected for Lorentz and polarization
  effects, decay and absorption and reduced to F~o~^2^
  using SAINT (Bruker, 2000) and SADABS (Sheldrick, 2001)
;
_diffrn_standards_number     0
_diffrn_standards_interval_count     ?
_diffrn_standards_interval_time     ?
_diffrn_standards_decay_%     0
loop_
    _diffrn_standard_refln_index_h
    _diffrn_standard_refln_index_k
    _diffrn_standard_refln_index_l
    ? ? ?
_refine_special_details
;
 Refinement of F^2^ against ALL reflections.  The weighted R-factor wR and
 goodness of fit S are based on F^2^, conventional R-factors R are based
 on F, with F set to zero for negative F^2^. The threshold expression of
 F^2^ > 2sigma(F^2^) is used only for calculating R-factors(gt) etc. and is
 not relevant to the choice of reflections for refinement.  R-factors based
 on F^2^ are statistically about twice as large as those based on F, and R-
 factors based on ALL data will be even larger.
;
_reflns_number_total     1451
_reflns_number_gt     938
_reflns_threshold_expression     I>2\s(I)
_refine_ls_structure_factor_coef     Fsqd
_refine_ls_matrix_type     full
_refine_ls_R_factor_all     0.0758
_refine_ls_R_factor_gt     0.0440
_refine_ls_wR_factor_gt     0.1091
_refine_ls_wR_factor_ref     0.1227
_refine_ls_goodness_of_fit_ref     1.026
_refine_ls_restrained_S_all     1.026
_refine_ls_number_reflns     1451
_refine_ls_number_parameters     124
_refine_ls_number_restraints     0
_refine_ls_number_constraints     ?
_refine_ls_hydrogen_treatment     refall
_refine_ls_weighting_scheme     calc
_refine_ls_weighting_details
;calc w=1/[\s^2^(Fo^2^)+(0.0700P)^2^+0.0P]
 where P=(Fo^2^+2Fc^2^)/3
;
_atom_sites_solution_hydrogens     difmap
_atom_sites_solution_primary     direct
_atom_sites_solution_secondary     direct
_refine_ls_shift/su_max     0.000
_refine_ls_shift/su_mean     0.000
_refine_diff_density_max     0.147
_refine_diff_density_min     -0.169
_refine_ls_extinction_method     none
_refine_ls_extinction_coef     ?
_refine_ls_abs_structure_details     ?
_refine_ls_abs_structure_Flack     ?
loop_
    _atom_type_symbol
    _atom_type_description
    _atom_type_scat_dispersion_real
    _atom_type_scat_dispersion_imag
    _atom_type_scat_source
    H H 0.0000 0.0000 'International Tables Vol C Tables 4.2.6.8 and 6.1.1.4'
    C C 0.0033 0.0016 'International Tables Vol C Tables 4.2.6.8 and 6.1.1.4'
_computing_data_collection     'SMART, Bruker Version 5.624, 2001'
_computing_cell_refinement     'SAINT, Bruker Version 6.02A, 2000'
_computing_data_reduction     'XPREP, Bruker Version 5.1/NT, 2000'
_computing_structure_solution
;
 SHELXS-97 (Sheldrick, 1997)
;
_computing_structure_refinement     'SHELXL-97 (Sheldrick, 1997)'
_computing_molecular_graphics
;
 PLUTO (Meetsma, 2004)
 PLATON (Spek, 2003)
;
_computing_publication_material     'PLATON (Spek, 2003)'
loop_
    _atom_site_type_symbol
    _atom_site_label
    _atom_site_fract_x
    _atom_site_fract_y
    _atom_site_fract_z
    _atom_site_U_iso_or_equiv
    _atom_site_thermal_displace_type
    _atom_site_calc_flag
    _atom_site_refinement_flags
    _atom_site_occupancy
    C C1 0.02705(7) 0.00000 0.00000 0.0327(7) Uani . . 1.000
    C C2 0.05294(5) -0.1429(2) 0.04897(10) 0.0335(5) Uani . . 1.000
    C C3 0.02658(5) -0.2928(2) 0.08756(10) 0.0341(5) Uani . . 1.000
    C C4 0.05147(7) -0.4433(2) 0.13347(11) 0.0424(6) Uani . . 1.000
    C C5 0.02589(7) -0.5831(2) 0.17451(12) 0.0475(6) Uani . . 1.000
    C C6 0.10704(6) -0.1325(2) 0.07249(11) 0.0369(5) Uani . . 1.000
    C C7 0.14252(6) -0.2440(2) 0.03033(13) 0.0467(6) Uani . . 1.000
    C C8 0.19095(7) -0.2455(3) 0.06085(16) 0.0623(8) Uani . . 1.000
    C C9 0.20534(8) -0.1351(3) 0.13354(16) 0.0694(9) Uani . . 1.000
    C C10 0.17085(8) -0.0241(3) 0.17627(15) 0.0659(8) Uani . . 1.000
    C C11 0.12213(7) -0.0226(3) 0.14638(12) 0.0499(6) Uani . . 1.000
    H H4 0.0875(6) -0.441(2) 0.1339(10) 0.036(4) Uiso . . 1.000
    H H5 0.0444(5) -0.680(2) 0.2050(12) 0.055(5) Uiso . . 1.000
    H H7 0.1318(6) -0.324(2) -0.0213(12) 0.053(5) Uiso . . 1.000
    H H8 0.2165(7) -0.321(3) 0.0286(14) 0.085(7) Uiso . . 1.000
    H H9 0.2409(8) -0.133(2) 0.1504(12) 0.072(6) Uiso . . 1.000
    H H10 0.1794(8) 0.060(3) 0.2267(16) 0.091(7) Uiso . . 1.000
    H H11 0.0955(6) 0.055(2) 0.1763(12) 0.054(5) Uiso . . 1.000
loop_
    _atom_site_aniso_label
    _atom_site_aniso_U_11
    _atom_site_aniso_U_22
    _atom_site_aniso_U_33
    _atom_site_aniso_U_12
    _atom_site_aniso_U_13
    _atom_site_aniso_U_23
    C1 0.0352(12) 0.0333(12) 0.0296(11) 0.0000 0.0000 -0.0037(9)
    C2 0.0370(9) 0.0335(8) 0.0301(8) 0.0014(7) 0.0015(6) -0.0007(6)
    C3 0.0428(9) 0.0339(8) 0.0255(8) 0.0042(7) -0.0001(6) -0.0018(6)
    C4 0.0467(11) 0.0419(9) 0.0386(9) 0.0070(8) 0.0032(8) 0.0046(8)
    C5 0.0620(12) 0.0373(10) 0.0432(10) 0.0084(8) 0.0022(8) 0.0094(8)
    C6 0.0369(9) 0.0400(9) 0.0337(8) 0.0032(7) 0.0004(7) 0.0054(7)
    C7 0.0420(10) 0.0451(10) 0.0531(11) 0.0040(9) 0.0070(8) 0.0034(9)
    C8 0.0397(11) 0.0683(14) 0.0789(15) 0.0072(10) 0.0104(10) 0.0130(11)
    C9 0.0391(12) 0.0929(17) 0.0763(16) -0.0026(12) -0.0072(11) 0.0209(14)
    C10 0.0589(14) 0.0874(16) 0.0515(12) -0.0082(12) -0.0154(10) 0.0006(11)
    C11 0.0484(11) 0.0611(12) 0.0403(9) 0.0032(9) -0.0019(8) -0.0030(9)
_geom_special_details
;
 Bond distances, angles etc. have been calculated using the
 rounded fractional coordinates. All su's are estimated
 from the variances of the (full) variance-covariance matrix.
 The cell esds are taken into account in the estimation of
 distances, angles and torsion angles
;
loop_
    _geom_bond_atom_site_label_1
    _geom_bond_atom_site_label_2
    _geom_bond_site_symmetry_1
    _geom_bond_site_symmetry_2
    _geom_bond_distance
    _geom_bond_publ_flag
    C1 C2 . . 1.4282(18) no
    C1 C2 . 3_555 1.4282(18) no
    C1 C1 . 5_555 1.453(3) no
    C2 C3 . . 1.405(2) no
    C2 C6 . . 1.494(2) no
    C3 C4 . . 1.435(2) no
    C3 C3 . 7_555 1.428(2) no
    C4 C5 . . 1.354(2) no
    C5 C5 . 7_555 1.391(3) no
    C6 C7 . . 1.386(2) no
    C6 C11 . . 1.388(3) no
    C7 C8 . . 1.373(3) no
    C8 C9 . . 1.371(3) no
    C9 C10 . . 1.370(3) no
    C10 C11 . . 1.378(3) no
    C4 H4 . . 0.968(16) no
    C5 H5 . . 0.963(15) no
    C7 H7 . . 0.985(16) no
    C8 H8 . . 0.99(2) no
    C9 H9 . . 0.99(2) no
    C10 H10 . . 0.97(2) no
    C11 H11 . . 1.005(16) no
loop_
    _geom_contact_atom_site_label_1
    _geom_contact_atom_site_label_2
    _geom_contact_distance
    _geom_contact_site_symmetry_1
    _geom_contact_site_symmetry_2
    _geom_contact_publ_flag
    C2 C11 3.581(3) . 3_555 no
    C4 C7 3.202(3) . . no
    C4 C11 3.577(3) . . no
    C6 C11 3.375(3) . 3_555 no
    C6 C6 2.831(2) . 3_555 no
    C6 C7 3.232(3) . 3_555 no
    C7 C4 3.202(3) . . no
    C7 C6 3.232(3) . 3_555 no
    C7 C11 3.238(3) . 3_555 no
    C11 C7 3.238(3) . 3_555 no
    C11 C6 3.375(3) . 3_555 no
    C11 C2 3.581(3) . 3_555 no
    C11 C4 3.577(3) . . no
    C4 H11 2.990(17) . 6_545 no
    C4 H5 3.010(16) . 6_555 no
    C5 H11 3.020(17) . 6_545 no
    C6 H4 2.447(15) . . no
    C7 H4 2.535(15) . . no
    C8 H8 2.842(19) . 13_545 no
    C9 H10 3.06(2) . 6_545 no
    C11 H7 3.089(16) . 3_555 no
    H4 C6 2.447(15) . . no
    H4 C7 2.535(15) . . no
    H5 H11 2.39(2) . 1_545 no
    H5 C4 3.010(16) . 6_545 no
    H7 C11 3.089(16) . 3_555 no
    H8 C8 2.842(19) . 13_545 no
    H8 H8 2.23(3) . 13_545 no
    H10 C9 3.06(2) . 6_555 no
    H11 H5 2.39(2) . 1_565 no
    H11 C4 2.990(17) . 6_555 no
    H11 C5 3.020(17) . 6_555 no
loop_
    _geom_angle_atom_site_label_1
    _geom_angle_atom_site_label_2
    _geom_angle_atom_site_label_3
    _geom_angle_site_symmetry_1
    _geom_angle_site_symmetry_2
    _geom_angle_site_symmetry_3
    _geom_angle
    _geom_angle_publ_flag
    C2 C1 C2 . . 3_555 121.72(15) no
    C1 C1 C2 5_555 . . 119.14(9) no
    C1 C1 C2 5_555 . 3_555 119.14(9) no
    C1 C2 C3 . . . 120.21(13) no
    C1 C2 C6 . . . 123.37(13) no
    C3 C2 C6 . . . 116.01(12) no
    C2 C3 C4 . . . 121.83(13) no
    C2 C3 C3 . . 7_555 120.26(13) no
    C3 C3 C4 7_555 . . 117.78(13) no
    C3 C4 C5 . . . 121.73(16) no
    C4 C5 C5 . . 7_555 120.49(15) no
    C2 C6 C7 . . . 122.68(14) no
    C2 C6 C11 . . . 119.15(14) no
    C7 C6 C11 . . . 117.78(16) no
    C6 C7 C8 . . . 120.99(17) no
    C7 C8 C9 . . . 120.52(19) no
    C8 C9 C10 . . . 119.4(2) no
    C9 C10 C11 . . . 120.4(2) no
    C6 C11 C10 . . . 120.89(18) no
    C3 C4 H4 . . . 117.1(9) no
    C5 C4 H4 . . . 121.1(9) no
    C4 C5 H5 . . . 118.4(8) no
    C5 C5 H5 7_555 . . 121.1(8) no
    C6 C7 H7 . . . 118.0(9) no
    C8 C7 H7 . . . 121.0(9) no
    C7 C8 H8 . . . 120.6(12) no
    C9 C8 H8 . . . 118.8(12) no
    C8 C9 H9 . . . 118.1(10) no
    C10 C9 H9 . . . 122.4(10) no
    C9 C10 H10 . . . 122.6(13) no
    C11 C10 H10 . . . 116.9(13) no
    C6 C11 H11 . . . 116.0(10) no
    C10 C11 H11 . . . 123.1(10) no
loop_
    _geom_torsion_atom_site_label_1
    _geom_torsion_atom_site_label_2
    _geom_torsion_atom_site_label_3
    _geom_torsion_atom_site_label_4
    _geom_torsion_site_symmetry_1
    _geom_torsion_site_symmetry_2
    _geom_torsion_site_symmetry_3
    _geom_torsion_site_symmetry_4
    _geom_torsion
    _geom_torsion_publ_flag
    C2 C1 C2 C3 3_555 . . . -172.81(12) no
    C2 C1 C2 C6 3_555 . . . 14.96(17) no
    C1 C1 C2 C3 5_555 . . . 7.19(15) no
    C1 C1 C2 C6 5_555 . . . -165.04(10) no
    C1 C2 C3 C4 . . . . 177.05(12) no
    C1 C2 C3 C3 . . . 7_555 -7.3(2) no
    C6 C2 C3 C4 . . . . -10.2(2) no
    C6 C2 C3 C3 . . . 7_555 165.51(13) no
    C1 C2 C6 C7 . . . . -109.70(17) no
    C1 C2 C6 C11 . . . . 77.70(19) no
    C3 C2 C6 C7 . . . . 77.77(19) no
    C3 C2 C6 C11 . . . . -94.83(18) no
    C2 C3 C4 C5 . . . . 176.76(15) no
    C3 C3 C4 C5 7_555 . . . 1.0(2) no
    C2 C3 C3 C2 . . 7_555 7_555 0.0(2) no
    C2 C3 C3 C4 . . 7_555 7_555 -175.85(14) no
    C4 C3 C3 C2 . . 7_555 7_555 175.85(14) no
    C4 C3 C3 C4 . . 7_555 7_555 0.0(2) no
    C3 C4 C5 C5 . . . 7_555 -1.0(2) no
    C4 C5 C5 C4 . . 7_555 7_555 0.0(3) no
    C2 C6 C7 C8 . . . . -172.64(16) no
    C11 C6 C7 C8 . . . . 0.1(3) no
    C2 C6 C11 C10 . . . . 173.27(17) no
    C7 C6 C11 C10 . . . . 0.3(3) no
    C6 C7 C8 C9 . . . . -0.5(3) no
    C7 C8 C9 C10 . . . . 0.6(3) no
    C8 C9 C10 C11 . . . . -0.2(3) no
    C9 C10 C11 C6 . . . . -0.2(3) no

